version 3
run Group5-3-20251130-03:49:05-215982
attr configname Group5
attr datetime 20251130-03:49:05
attr datetimef 20251130-034905
attr experiment Group5
attr inifile omnetpp.ini
attr iterationvars "$0=\"Leach\", $1=18"
attr iterationvarsd Leach/18
attr iterationvarsf Leach,18-
attr measurement "$0=\"Leach\", $1=18"
attr network WsnNetwork
attr processid 215982
attr repetition 0
attr replication #0
attr resultdir results
attr runnumber 3
attr seedset 22360
config image-path ../../inet4.5/images
config description "Clustered(2 clusters,18); LEACH vs PEGASIS"
config seed-set 22360
config network WsnNetwork
config **.numNodes 18
config **.topologyType "\"clustered\""
config **.radio.txRange "\"35m\""
config **.node[0..8].mobility.initialX "uniform(70m, 130m)"
config **.node[0..8].mobility.initialY "uniform(70m, 130m)"
config **.node[9..17].mobility.initialX "uniform(270m, 330m)"
config **.node[9..17].mobility.initialY "uniform(70m, 130m)"
config **.baseStation.mobility.initialX 200m
config **.baseStation.mobility.initialY 300m
config *.activeProtocol "\"Leach\""
config **.app.traffic "\"constant\""
config **.app.packetInterval 0.9s
config **.app.payloadBytes 64B
config **.node[*].initialJoules 18J
config **.node[*].radioTx_mA 17.4
config **.node[*].radioRx_mA 19.7
config **.node[*].sleep_mA 0.06
config **.node[*].supplyVoltage 3.0V
config **.wlan.interfaceTableModule "\"^.interfaceTable\""
config **.wlan.radio.antenna.mobilityModule "\"^.^.^.mobility\""
config **.wlan.radio.energyConsumer.energySourceModule "\"^.^.energyStorage\""
config **.wlan.radio.energyConsumer.energySourceModule "\"^.^.energyStorage\""
config **.wlan.radio.typename Ieee802154NarrowbandScalarRadio
config **.wlan.radio.antenna.typename IsotropicAntenna
config **.wlan.radio.transmitter.power 1mW
config **.wlan.radio.receiver.sensitivity -85dBm
config **.wlan.radio.receiver.energyConsumer.typename StateBasedEpEnergyConsumer
config **.wlan.radio.receiver.energyConsumer.offPowerConsumption 0mW
config **.wlan.radio.receiver.energyConsumer.sleepPowerConsumption 0mW
config **.wlan.radio.receiver.energyConsumer.receiverIdlePowerConsumption 0mW
config **.wlan.radio.receiver.energyConsumer.receiverBusyPowerConsumption 0mW
config **.wlan.radio.receiver.energyConsumer.receiverReceivingPowerConsumption 0mW
config output-scalar-file results/group5-Group5-3.sca
config output-vector-file results/group5-Group5-3.vec
config **.scalar-recording true
config **.vector-recording true
config **.stat.pdr true
config **.stat.delay true
config **.stat.residualEnergy true
config **.groupId 5
config **.groupKey "\"22360-5\""
config sim-time-limit 1800s
config repeat 3
config warmup-period 60s
config rng-class cMersenneTwister

vector 0 WsnNetwork.baseStation.energyStorage powerConsumption:vector ETV
attr interpolationmode sample-hold
attr recordingmode vector
attr source powerConsumptionChanged
attr title "Power consumption"
attr unit W
vector 1 WsnNetwork.baseStation.energyStorage powerGeneration:vector ETV
attr interpolationmode sample-hold
attr recordingmode vector
attr source powerGenerationChanged
attr title "Power generation"
attr unit W
vector 2 WsnNetwork.baseStation.energyStorage residualEnergyCapacity:vector ETV
attr interpolationmode linear
attr recordingmode vector
attr source residualEnergyCapacityChanged
attr title "Residual energy capacity"
attr unit J
vector 3 WsnNetwork.baseStation.routing packetReceived:vector ETV
attr recordingmode vector
vector 4 WsnNetwork.baseStation.routing endToEndDelay:vector ETV
attr recordingmode vector
vector 5 WsnNetwork.baseStation.wlan.queue queueLength:vector ETV
attr autoWarmupFilter false
attr interpolationmode sample-hold
attr recordingmode vector
attr source "warmup(atomic(constant0(packetPushEnded) + count(packetPushStarted) - count(packetPulled) - count(packetRemoved) - count(packetDropped)))"
attr title "queue length"
attr unit pk
vector 6 WsnNetwork.baseStation.wlan.queue queueBitLength:vector ETV
attr autoWarmupFilter false
attr interpolationmode sample-hold
attr recordingmode vector
attr source "warmup(atomic(constant0(packetPushEnded) + sum(packetLength(packetPushStarted)) - sum(packetLength(packetPulled)) - sum(packetLength(packetRemoved)) - sum(packetLength(packetDropped))))"
attr title "queue bit length"
attr unit b
vector 7 WsnNetwork.baseStation.wlan.queue queueingTime:vector ETV
attr interpolationmode none
attr recordingmode vector
attr source queueingTime(packetPulled)
attr title "queueing times"
attr unit s
vector 8 WsnNetwork.baseStation.wlan.queue incomingPacketLengths:vector ETV
attr interpolationmode none
attr recordingmode vector
attr source packetLength(packetPushStarted)
attr title "incoming packet lengths"
attr unit b
vector 9 WsnNetwork.baseStation.wlan.queue incomingDataRate:vector ETV
attr interpolationmode linear
attr recordingmode vector
attr source throughput(packetPushStarted)
attr title "incoming datarate"
attr unit bps
vector 10 WsnNetwork.baseStation.wlan.queue outgoingPacketLengths:vector ETV
attr interpolationmode none
attr recordingmode vector
attr source packetLength(packetPulled)
attr title "outgoing packet lengths"
attr unit b
vector 11 WsnNetwork.baseStation.wlan.queue outgoingDataRate:vector ETV
attr interpolationmode linear
attr recordingmode vector
attr source throughput(packetPulled)
attr title "outgoing datarate"
attr unit bps
vector 12 WsnNetwork.baseStation.wlan.queue droppedPacketLengthsQueueOverflow:vector ETV
attr interpolationmode none
attr recordingmode vector
attr source packetLength(packetDropReasonIsQueueOverflow(packetDropped))
attr title "dropped packet lengths: queue overflow"
attr unit b
vector 13 WsnNetwork.baseStation.wlan.queue flowQueueingTime:vector ETV
attr interpolationmode none
attr recordingmode vector
attr source queueingTime(demuxFlow(packetPulled))
attr title "flow queueing times"
attr unit s
vector 14 WsnNetwork.baseStation.wlan.queue flowIncomingDataRate:vector ETV
attr interpolationmode linear
attr recordingmode vector
attr source throughput(flowPacketLength(demuxFlow(packetPushStarted)))
attr title "flow specific incoming data rate"
attr unit bps
vector 15 WsnNetwork.baseStation.wlan.queue flowOutgoingDataRate:vector ETV
attr interpolationmode linear
attr recordingmode vector
attr source throughput(flowPacketLength(demuxFlow(packetPulled)))
attr title "flow specific outgoing data rate"
attr unit bps
vector 16 WsnNetwork.baseStation.wlan.mac packetDropNotAddressToUs:vector(packetBytes) ETV
attr interpolationmode none
attr recordingmode vector(packetBytes)
attr source packetDropReasonIsNotAddressedToUs(packetDropped)
attr title "packet drop: not addressed to us, packetBytes"
vector 17 WsnNetwork.baseStation.wlan.mac packetDropIncorrectlyReceived:vector(packetBytes) ETV
attr interpolationmode none
attr recordingmode vector(packetBytes)
attr source packetDropReasonIsIncorrectlyReceived(packetDropped)
attr title "packet drop: incorrectly received, packetBytes"
vector 18 WsnNetwork.baseStation.wlan.mac packetDropQueueOverflow:vector(packetBytes) ETV
attr interpolationmode none
attr recordingmode vector(packetBytes)
attr source packetDropReasonIsQueueOverflow(packetDropped)
attr title "packet drop: queue overflow, packetBytes"
vector 19 WsnNetwork.baseStation.wlan.mac packetDropRetryLimitReached:vector(packetBytes) ETV
attr interpolationmode none
attr recordingmode vector(packetBytes)
attr source packetDropReasonIsRetryLimitReached(packetDropped)
attr title "packet drop: retry limit reached, packetBytes"
vector 20 WsnNetwork.baseStation.wlan.mac packetDropBackoffLimitReached:vector(packetBytes) ETV
attr interpolationmode none
attr recordingmode vector(packetBytes)
attr source packetDropReasonIsCongestion(packetDropped)
attr title "packet drop: backoff limit reached, packetBytes"
vector 21 WsnNetwork.baseStation.wlan.radio radioMode:vector ETV
attr interpolationmode sample-hold
attr recordingmode vector
attr source radioModeChanged
attr title "Radio mode"
vector 22 WsnNetwork.baseStation.wlan.radio receptionState:vector ETV
attr interpolationmode sample-hold
attr recordingmode vector
attr source receptionStateChanged
attr title "Radio reception state"
vector 23 WsnNetwork.baseStation.wlan.radio transmissionState:vector ETV
attr interpolationmode sample-hold
attr recordingmode vector
attr source transmissionStateChanged
attr title "Radio transmission state"
vector 24 WsnNetwork.baseStation.wlan packetDropInterfaceDown:vector(packetBytes) ETV
attr interpolationmode none
attr recordingmode vector(packetBytes)
attr source packetDropReasonIsInterfaceDown(packetDropped)
attr title "packet drops: interface down, packetBytes"
vector 25 WsnNetwork.baseStation.wlan packetDropNoCarrier:vector(packetBytes) ETV
attr interpolationmode none
attr recordingmode vector(packetBytes)
attr source packetDropReasonIsNoCarrier(packetDropped)
attr title "packet drops: no carrier, packetBytes"
vector 26 WsnNetwork.node[0].energyStorage powerConsumption:vector ETV
attr interpolationmode sample-hold
attr recordingmode vector
attr source powerConsumptionChanged
attr title "Power consumption"
attr unit W
vector 27 WsnNetwork.node[0].energyStorage powerGeneration:vector ETV
attr interpolationmode sample-hold
attr recordingmode vector
attr source powerGenerationChanged
attr title "Power generation"
attr unit W
vector 28 WsnNetwork.node[0].energyStorage residualEnergyCapacity:vector ETV
attr interpolationmode linear
attr recordingmode vector
attr source residualEnergyCapacityChanged
attr title "Residual energy capacity"
attr unit J
vector 29 WsnNetwork.node[0].app packetSent:vector ETV
attr recordingmode vector
vector 30 WsnNetwork.node[0].routing packetReceived:vector ETV
attr recordingmode vector
vector 31 WsnNetwork.node[0].routing endToEndDelay:vector ETV
attr recordingmode vector
vector 32 WsnNetwork.node[0].wlan.queue queueLength:vector ETV
attr autoWarmupFilter false
attr interpolationmode sample-hold
attr recordingmode vector
attr source "warmup(atomic(constant0(packetPushEnded) + count(packetPushStarted) - count(packetPulled) - count(packetRemoved) - count(packetDropped)))"
attr title "queue length"
attr unit pk
vector 33 WsnNetwork.node[0].wlan.queue queueBitLength:vector ETV
attr autoWarmupFilter false
attr interpolationmode sample-hold
attr recordingmode vector
attr source "warmup(atomic(constant0(packetPushEnded) + sum(packetLength(packetPushStarted)) - sum(packetLength(packetPulled)) - sum(packetLength(packetRemoved)) - sum(packetLength(packetDropped))))"
attr title "queue bit length"
attr unit b
vector 34 WsnNetwork.node[0].wlan.queue queueingTime:vector ETV
attr interpolationmode none
attr recordingmode vector
attr source queueingTime(packetPulled)
attr title "queueing times"
attr unit s
vector 35 WsnNetwork.node[0].wlan.queue incomingPacketLengths:vector ETV
attr interpolationmode none
attr recordingmode vector
attr source packetLength(packetPushStarted)
attr title "incoming packet lengths"
attr unit b
vector 36 WsnNetwork.node[0].wlan.queue incomingDataRate:vector ETV
attr interpolationmode linear
attr recordingmode vector
attr source throughput(packetPushStarted)
attr title "incoming datarate"
attr unit bps
vector 37 WsnNetwork.node[0].wlan.queue outgoingPacketLengths:vector ETV
attr interpolationmode none
attr recordingmode vector
attr source packetLength(packetPulled)
attr title "outgoing packet lengths"
attr unit b
vector 38 WsnNetwork.node[0].wlan.queue outgoingDataRate:vector ETV
attr interpolationmode linear
attr recordingmode vector
attr source throughput(packetPulled)
attr title "outgoing datarate"
attr unit bps
vector 39 WsnNetwork.node[0].wlan.queue droppedPacketLengthsQueueOverflow:vector ETV
attr interpolationmode none
attr recordingmode vector
attr source packetLength(packetDropReasonIsQueueOverflow(packetDropped))
attr title "dropped packet lengths: queue overflow"
attr unit b
vector 40 WsnNetwork.node[0].wlan.queue flowQueueingTime:vector ETV
attr interpolationmode none
attr recordingmode vector
attr source queueingTime(demuxFlow(packetPulled))
attr title "flow queueing times"
attr unit s
vector 41 WsnNetwork.node[0].wlan.queue flowIncomingDataRate:vector ETV
attr interpolationmode linear
attr recordingmode vector
attr source throughput(flowPacketLength(demuxFlow(packetPushStarted)))
attr title "flow specific incoming data rate"
attr unit bps
vector 42 WsnNetwork.node[0].wlan.queue flowOutgoingDataRate:vector ETV
attr interpolationmode linear
attr recordingmode vector
attr source throughput(flowPacketLength(demuxFlow(packetPulled)))
attr title "flow specific outgoing data rate"
attr unit bps
vector 43 WsnNetwork.node[0].wlan.mac packetDropNotAddressToUs:vector(packetBytes) ETV
attr interpolationmode none
attr recordingmode vector(packetBytes)
attr source packetDropReasonIsNotAddressedToUs(packetDropped)
attr title "packet drop: not addressed to us, packetBytes"
vector 44 WsnNetwork.node[0].wlan.mac packetDropIncorrectlyReceived:vector(packetBytes) ETV
attr interpolationmode none
attr recordingmode vector(packetBytes)
attr source packetDropReasonIsIncorrectlyReceived(packetDropped)
attr title "packet drop: incorrectly received, packetBytes"
vector 45 WsnNetwork.node[0].wlan.mac packetDropQueueOverflow:vector(packetBytes) ETV
attr interpolationmode none
attr recordingmode vector(packetBytes)
attr source packetDropReasonIsQueueOverflow(packetDropped)
attr title "packet drop: queue overflow, packetBytes"
vector 46 WsnNetwork.node[0].wlan.mac packetDropRetryLimitReached:vector(packetBytes) ETV
attr interpolationmode none
attr recordingmode vector(packetBytes)
attr source packetDropReasonIsRetryLimitReached(packetDropped)
attr title "packet drop: retry limit reached, packetBytes"
vector 47 WsnNetwork.node[0].wlan.mac packetDropBackoffLimitReached:vector(packetBytes) ETV
attr interpolationmode none
attr recordingmode vector(packetBytes)
attr source packetDropReasonIsCongestion(packetDropped)
attr title "packet drop: backoff limit reached, packetBytes"
vector 48 WsnNetwork.node[0].wlan.radio radioMode:vector ETV
attr interpolationmode sample-hold
attr recordingmode vector
attr source radioModeChanged
attr title "Radio mode"
vector 49 WsnNetwork.node[0].wlan.radio receptionState:vector ETV
attr interpolationmode sample-hold
attr recordingmode vector
attr source receptionStateChanged
attr title "Radio reception state"
vector 50 WsnNetwork.node[0].wlan.radio transmissionState:vector ETV
attr interpolationmode sample-hold
attr recordingmode vector
attr source transmissionStateChanged
attr title "Radio transmission state"
vector 51 WsnNetwork.node[0].wlan packetDropInterfaceDown:vector(packetBytes) ETV
attr interpolationmode none
attr recordingmode vector(packetBytes)
attr source packetDropReasonIsInterfaceDown(packetDropped)
attr title "packet drops: interface down, packetBytes"
vector 52 WsnNetwork.node[0].wlan packetDropNoCarrier:vector(packetBytes) ETV
attr interpolationmode none
attr recordingmode vector(packetBytes)
attr source packetDropReasonIsNoCarrier(packetDropped)
attr title "packet drops: no carrier, packetBytes"
vector 53 WsnNetwork.node[1].energyStorage powerConsumption:vector ETV
attr interpolationmode sample-hold
attr recordingmode vector
attr source powerConsumptionChanged
attr title "Power consumption"
attr unit W
vector 54 WsnNetwork.node[1].energyStorage powerGeneration:vector ETV
attr interpolationmode sample-hold
attr recordingmode vector
attr source powerGenerationChanged
attr title "Power generation"
attr unit W
vector 55 WsnNetwork.node[1].energyStorage residualEnergyCapacity:vector ETV
attr interpolationmode linear
attr recordingmode vector
attr source residualEnergyCapacityChanged
attr title "Residual energy capacity"
attr unit J
vector 56 WsnNetwork.node[1].app packetSent:vector ETV
attr recordingmode vector
vector 57 WsnNetwork.node[1].routing packetReceived:vector ETV
attr recordingmode vector
vector 58 WsnNetwork.node[1].routing endToEndDelay:vector ETV
attr recordingmode vector
vector 59 WsnNetwork.node[1].wlan.queue queueLength:vector ETV
attr autoWarmupFilter false
attr interpolationmode sample-hold
attr recordingmode vector
attr source "warmup(atomic(constant0(packetPushEnded) + count(packetPushStarted) - count(packetPulled) - count(packetRemoved) - count(packetDropped)))"
attr title "queue length"
attr unit pk
vector 60 WsnNetwork.node[1].wlan.queue queueBitLength:vector ETV
attr autoWarmupFilter false
attr interpolationmode sample-hold
attr recordingmode vector
attr source "warmup(atomic(constant0(packetPushEnded) + sum(packetLength(packetPushStarted)) - sum(packetLength(packetPulled)) - sum(packetLength(packetRemoved)) - sum(packetLength(packetDropped))))"
attr title "queue bit length"
attr unit b
vector 61 WsnNetwork.node[1].wlan.queue queueingTime:vector ETV
attr interpolationmode none
attr recordingmode vector
attr source queueingTime(packetPulled)
attr title "queueing times"
attr unit s
vector 62 WsnNetwork.node[1].wlan.queue incomingPacketLengths:vector ETV
attr interpolationmode none
attr recordingmode vector
attr source packetLength(packetPushStarted)
attr title "incoming packet lengths"
attr unit b
vector 63 WsnNetwork.node[1].wlan.queue incomingDataRate:vector ETV
attr interpolationmode linear
attr recordingmode vector
attr source throughput(packetPushStarted)
attr title "incoming datarate"
attr unit bps
vector 64 WsnNetwork.node[1].wlan.queue outgoingPacketLengths:vector ETV
attr interpolationmode none
attr recordingmode vector
attr source packetLength(packetPulled)
attr title "outgoing packet lengths"
attr unit b
vector 65 WsnNetwork.node[1].wlan.queue outgoingDataRate:vector ETV
attr interpolationmode linear
attr recordingmode vector
attr source throughput(packetPulled)
attr title "outgoing datarate"
attr unit bps
vector 66 WsnNetwork.node[1].wlan.queue droppedPacketLengthsQueueOverflow:vector ETV
attr interpolationmode none
attr recordingmode vector
attr source packetLength(packetDropReasonIsQueueOverflow(packetDropped))
attr title "dropped packet lengths: queue overflow"
attr unit b
vector 67 WsnNetwork.node[1].wlan.queue flowQueueingTime:vector ETV
attr interpolationmode none
attr recordingmode vector
attr source queueingTime(demuxFlow(packetPulled))
attr title "flow queueing times"
attr unit s
vector 68 WsnNetwork.node[1].wlan.queue flowIncomingDataRate:vector ETV
attr interpolationmode linear
attr recordingmode vector
attr source throughput(flowPacketLength(demuxFlow(packetPushStarted)))
attr title "flow specific incoming data rate"
attr unit bps
vector 69 WsnNetwork.node[1].wlan.queue flowOutgoingDataRate:vector ETV
attr interpolationmode linear
attr recordingmode vector
attr source throughput(flowPacketLength(demuxFlow(packetPulled)))
attr title "flow specific outgoing data rate"
attr unit bps
vector 70 WsnNetwork.node[1].wlan.mac packetDropNotAddressToUs:vector(packetBytes) ETV
attr interpolationmode none
attr recordingmode vector(packetBytes)
attr source packetDropReasonIsNotAddressedToUs(packetDropped)
attr title "packet drop: not addressed to us, packetBytes"
vector 71 WsnNetwork.node[1].wlan.mac packetDropIncorrectlyReceived:vector(packetBytes) ETV
attr interpolationmode none
attr recordingmode vector(packetBytes)
attr source packetDropReasonIsIncorrectlyReceived(packetDropped)
attr title "packet drop: incorrectly received, packetBytes"
vector 72 WsnNetwork.node[1].wlan.mac packetDropQueueOverflow:vector(packetBytes) ETV
attr interpolationmode none
attr recordingmode vector(packetBytes)
attr source packetDropReasonIsQueueOverflow(packetDropped)
attr title "packet drop: queue overflow, packetBytes"
vector 73 WsnNetwork.node[1].wlan.mac packetDropRetryLimitReached:vector(packetBytes) ETV
attr interpolationmode none
attr recordingmode vector(packetBytes)
attr source packetDropReasonIsRetryLimitReached(packetDropped)
attr title "packet drop: retry limit reached, packetBytes"
vector 74 WsnNetwork.node[1].wlan.mac packetDropBackoffLimitReached:vector(packetBytes) ETV
attr interpolationmode none
attr recordingmode vector(packetBytes)
attr source packetDropReasonIsCongestion(packetDropped)
attr title "packet drop: backoff limit reached, packetBytes"
vector 75 WsnNetwork.node[1].wlan.radio radioMode:vector ETV
attr interpolationmode sample-hold
attr recordingmode vector
attr source radioModeChanged
attr title "Radio mode"
vector 76 WsnNetwork.node[1].wlan.radio receptionState:vector ETV
attr interpolationmode sample-hold
attr recordingmode vector
attr source receptionStateChanged
attr title "Radio reception state"
vector 77 WsnNetwork.node[1].wlan.radio transmissionState:vector ETV
attr interpolationmode sample-hold
attr recordingmode vector
attr source transmissionStateChanged
attr title "Radio transmission state"
vector 78 WsnNetwork.node[1].wlan packetDropInterfaceDown:vector(packetBytes) ETV
attr interpolationmode none
attr recordingmode vector(packetBytes)
attr source packetDropReasonIsInterfaceDown(packetDropped)
attr title "packet drops: interface down, packetBytes"
vector 79 WsnNetwork.node[1].wlan packetDropNoCarrier:vector(packetBytes) ETV
attr interpolationmode none
attr recordingmode vector(packetBytes)
attr source packetDropReasonIsNoCarrier(packetDropped)
attr title "packet drops: no carrier, packetBytes"
vector 80 WsnNetwork.node[2].energyStorage powerConsumption:vector ETV
attr interpolationmode sample-hold
attr recordingmode vector
attr source powerConsumptionChanged
attr title "Power consumption"
attr unit W
vector 81 WsnNetwork.node[2].energyStorage powerGeneration:vector ETV
attr interpolationmode sample-hold
attr recordingmode vector
attr source powerGenerationChanged
attr title "Power generation"
attr unit W
vector 82 WsnNetwork.node[2].energyStorage residualEnergyCapacity:vector ETV
attr interpolationmode linear
attr recordingmode vector
attr source residualEnergyCapacityChanged
attr title "Residual energy capacity"
attr unit J
vector 83 WsnNetwork.node[2].app packetSent:vector ETV
attr recordingmode vector
vector 84 WsnNetwork.node[2].routing packetReceived:vector ETV
attr recordingmode vector
vector 85 WsnNetwork.node[2].routing endToEndDelay:vector ETV
attr recordingmode vector
vector 86 WsnNetwork.node[2].wlan.queue queueLength:vector ETV
attr autoWarmupFilter false
attr interpolationmode sample-hold
attr recordingmode vector
attr source "warmup(atomic(constant0(packetPushEnded) + count(packetPushStarted) - count(packetPulled) - count(packetRemoved) - count(packetDropped)))"
attr title "queue length"
attr unit pk
vector 87 WsnNetwork.node[2].wlan.queue queueBitLength:vector ETV
attr autoWarmupFilter false
attr interpolationmode sample-hold
attr recordingmode vector
attr source "warmup(atomic(constant0(packetPushEnded) + sum(packetLength(packetPushStarted)) - sum(packetLength(packetPulled)) - sum(packetLength(packetRemoved)) - sum(packetLength(packetDropped))))"
attr title "queue bit length"
attr unit b
vector 88 WsnNetwork.node[2].wlan.queue queueingTime:vector ETV
attr interpolationmode none
attr recordingmode vector
attr source queueingTime(packetPulled)
attr title "queueing times"
attr unit s
vector 89 WsnNetwork.node[2].wlan.queue incomingPacketLengths:vector ETV
attr interpolationmode none
attr recordingmode vector
attr source packetLength(packetPushStarted)
attr title "incoming packet lengths"
attr unit b
vector 90 WsnNetwork.node[2].wlan.queue incomingDataRate:vector ETV
attr interpolationmode linear
attr recordingmode vector
attr source throughput(packetPushStarted)
attr title "incoming datarate"
attr unit bps
vector 91 WsnNetwork.node[2].wlan.queue outgoingPacketLengths:vector ETV
attr interpolationmode none
attr recordingmode vector
attr source packetLength(packetPulled)
attr title "outgoing packet lengths"
attr unit b
vector 92 WsnNetwork.node[2].wlan.queue outgoingDataRate:vector ETV
attr interpolationmode linear
attr recordingmode vector
attr source throughput(packetPulled)
attr title "outgoing datarate"
attr unit bps
vector 93 WsnNetwork.node[2].wlan.queue droppedPacketLengthsQueueOverflow:vector ETV
attr interpolationmode none
attr recordingmode vector
attr source packetLength(packetDropReasonIsQueueOverflow(packetDropped))
attr title "dropped packet lengths: queue overflow"
attr unit b
vector 94 WsnNetwork.node[2].wlan.queue flowQueueingTime:vector ETV
attr interpolationmode none
attr recordingmode vector
attr source queueingTime(demuxFlow(packetPulled))
attr title "flow queueing times"
attr unit s
vector 95 WsnNetwork.node[2].wlan.queue flowIncomingDataRate:vector ETV
attr interpolationmode linear
attr recordingmode vector
attr source throughput(flowPacketLength(demuxFlow(packetPushStarted)))
attr title "flow specific incoming data rate"
attr unit bps
vector 96 WsnNetwork.node[2].wlan.queue flowOutgoingDataRate:vector ETV
attr interpolationmode linear
attr recordingmode vector
attr source throughput(flowPacketLength(demuxFlow(packetPulled)))
attr title "flow specific outgoing data rate"
attr unit bps
vector 97 WsnNetwork.node[2].wlan.mac packetDropNotAddressToUs:vector(packetBytes) ETV
attr interpolationmode none
attr recordingmode vector(packetBytes)
attr source packetDropReasonIsNotAddressedToUs(packetDropped)
attr title "packet drop: not addressed to us, packetBytes"
vector 98 WsnNetwork.node[2].wlan.mac packetDropIncorrectlyReceived:vector(packetBytes) ETV
attr interpolationmode none
attr recordingmode vector(packetBytes)
attr source packetDropReasonIsIncorrectlyReceived(packetDropped)
attr title "packet drop: incorrectly received, packetBytes"
vector 99 WsnNetwork.node[2].wlan.mac packetDropQueueOverflow:vector(packetBytes) ETV
attr interpolationmode none
attr recordingmode vector(packetBytes)
attr source packetDropReasonIsQueueOverflow(packetDropped)
attr title "packet drop: queue overflow, packetBytes"
vector 100 WsnNetwork.node[2].wlan.mac packetDropRetryLimitReached:vector(packetBytes) ETV
attr interpolationmode none
attr recordingmode vector(packetBytes)
attr source packetDropReasonIsRetryLimitReached(packetDropped)
attr title "packet drop: retry limit reached, packetBytes"
vector 101 WsnNetwork.node[2].wlan.mac packetDropBackoffLimitReached:vector(packetBytes) ETV
attr interpolationmode none
attr recordingmode vector(packetBytes)
attr source packetDropReasonIsCongestion(packetDropped)
attr title "packet drop: backoff limit reached, packetBytes"
vector 102 WsnNetwork.node[2].wlan.radio radioMode:vector ETV
attr interpolationmode sample-hold
attr recordingmode vector
attr source radioModeChanged
attr title "Radio mode"
vector 103 WsnNetwork.node[2].wlan.radio receptionState:vector ETV
attr interpolationmode sample-hold
attr recordingmode vector
attr source receptionStateChanged
attr title "Radio reception state"
vector 104 WsnNetwork.node[2].wlan.radio transmissionState:vector ETV
attr interpolationmode sample-hold
attr recordingmode vector
attr source transmissionStateChanged
attr title "Radio transmission state"
vector 105 WsnNetwork.node[2].wlan packetDropInterfaceDown:vector(packetBytes) ETV
attr interpolationmode none
attr recordingmode vector(packetBytes)
attr source packetDropReasonIsInterfaceDown(packetDropped)
attr title "packet drops: interface down, packetBytes"
vector 106 WsnNetwork.node[2].wlan packetDropNoCarrier:vector(packetBytes) ETV
attr interpolationmode none
attr recordingmode vector(packetBytes)
attr source packetDropReasonIsNoCarrier(packetDropped)
attr title "packet drops: no carrier, packetBytes"
vector 107 WsnNetwork.node[3].energyStorage powerConsumption:vector ETV
attr interpolationmode sample-hold
attr recordingmode vector
attr source powerConsumptionChanged
attr title "Power consumption"
attr unit W
vector 108 WsnNetwork.node[3].energyStorage powerGeneration:vector ETV
attr interpolationmode sample-hold
attr recordingmode vector
attr source powerGenerationChanged
attr title "Power generation"
attr unit W
vector 109 WsnNetwork.node[3].energyStorage residualEnergyCapacity:vector ETV
attr interpolationmode linear
attr recordingmode vector
attr source residualEnergyCapacityChanged
attr title "Residual energy capacity"
attr unit J
vector 110 WsnNetwork.node[3].app packetSent:vector ETV
attr recordingmode vector
vector 111 WsnNetwork.node[3].routing packetReceived:vector ETV
attr recordingmode vector
vector 112 WsnNetwork.node[3].routing endToEndDelay:vector ETV
attr recordingmode vector
vector 113 WsnNetwork.node[3].wlan.queue queueLength:vector ETV
attr autoWarmupFilter false
attr interpolationmode sample-hold
attr recordingmode vector
attr source "warmup(atomic(constant0(packetPushEnded) + count(packetPushStarted) - count(packetPulled) - count(packetRemoved) - count(packetDropped)))"
attr title "queue length"
attr unit pk
vector 114 WsnNetwork.node[3].wlan.queue queueBitLength:vector ETV
attr autoWarmupFilter false
attr interpolationmode sample-hold
attr recordingmode vector
attr source "warmup(atomic(constant0(packetPushEnded) + sum(packetLength(packetPushStarted)) - sum(packetLength(packetPulled)) - sum(packetLength(packetRemoved)) - sum(packetLength(packetDropped))))"
attr title "queue bit length"
attr unit b
vector 115 WsnNetwork.node[3].wlan.queue queueingTime:vector ETV
attr interpolationmode none
attr recordingmode vector
attr source queueingTime(packetPulled)
attr title "queueing times"
attr unit s
vector 116 WsnNetwork.node[3].wlan.queue incomingPacketLengths:vector ETV
attr interpolationmode none
attr recordingmode vector
attr source packetLength(packetPushStarted)
attr title "incoming packet lengths"
attr unit b
vector 117 WsnNetwork.node[3].wlan.queue incomingDataRate:vector ETV
attr interpolationmode linear
attr recordingmode vector
attr source throughput(packetPushStarted)
attr title "incoming datarate"
attr unit bps
vector 118 WsnNetwork.node[3].wlan.queue outgoingPacketLengths:vector ETV
attr interpolationmode none
attr recordingmode vector
attr source packetLength(packetPulled)
attr title "outgoing packet lengths"
attr unit b
vector 119 WsnNetwork.node[3].wlan.queue outgoingDataRate:vector ETV
attr interpolationmode linear
attr recordingmode vector
attr source throughput(packetPulled)
attr title "outgoing datarate"
attr unit bps
vector 120 WsnNetwork.node[3].wlan.queue droppedPacketLengthsQueueOverflow:vector ETV
attr interpolationmode none
attr recordingmode vector
attr source packetLength(packetDropReasonIsQueueOverflow(packetDropped))
attr title "dropped packet lengths: queue overflow"
attr unit b
vector 121 WsnNetwork.node[3].wlan.queue flowQueueingTime:vector ETV
attr interpolationmode none
attr recordingmode vector
attr source queueingTime(demuxFlow(packetPulled))
attr title "flow queueing times"
attr unit s
vector 122 WsnNetwork.node[3].wlan.queue flowIncomingDataRate:vector ETV
attr interpolationmode linear
attr recordingmode vector
attr source throughput(flowPacketLength(demuxFlow(packetPushStarted)))
attr title "flow specific incoming data rate"
attr unit bps
vector 123 WsnNetwork.node[3].wlan.queue flowOutgoingDataRate:vector ETV
attr interpolationmode linear
attr recordingmode vector
attr source throughput(flowPacketLength(demuxFlow(packetPulled)))
attr title "flow specific outgoing data rate"
attr unit bps
vector 124 WsnNetwork.node[3].wlan.mac packetDropNotAddressToUs:vector(packetBytes) ETV
attr interpolationmode none
attr recordingmode vector(packetBytes)
attr source packetDropReasonIsNotAddressedToUs(packetDropped)
attr title "packet drop: not addressed to us, packetBytes"
vector 125 WsnNetwork.node[3].wlan.mac packetDropIncorrectlyReceived:vector(packetBytes) ETV
attr interpolationmode none
attr recordingmode vector(packetBytes)
attr source packetDropReasonIsIncorrectlyReceived(packetDropped)
attr title "packet drop: incorrectly received, packetBytes"
vector 126 WsnNetwork.node[3].wlan.mac packetDropQueueOverflow:vector(packetBytes) ETV
attr interpolationmode none
attr recordingmode vector(packetBytes)
attr source packetDropReasonIsQueueOverflow(packetDropped)
attr title "packet drop: queue overflow, packetBytes"
vector 127 WsnNetwork.node[3].wlan.mac packetDropRetryLimitReached:vector(packetBytes) ETV
attr interpolationmode none
attr recordingmode vector(packetBytes)
attr source packetDropReasonIsRetryLimitReached(packetDropped)
attr title "packet drop: retry limit reached, packetBytes"
vector 128 WsnNetwork.node[3].wlan.mac packetDropBackoffLimitReached:vector(packetBytes) ETV
attr interpolationmode none
attr recordingmode vector(packetBytes)
attr source packetDropReasonIsCongestion(packetDropped)
attr title "packet drop: backoff limit reached, packetBytes"
vector 129 WsnNetwork.node[3].wlan.radio radioMode:vector ETV
attr interpolationmode sample-hold
attr recordingmode vector
attr source radioModeChanged
attr title "Radio mode"
vector 130 WsnNetwork.node[3].wlan.radio receptionState:vector ETV
attr interpolationmode sample-hold
attr recordingmode vector
attr source receptionStateChanged
attr title "Radio reception state"
vector 131 WsnNetwork.node[3].wlan.radio transmissionState:vector ETV
attr interpolationmode sample-hold
attr recordingmode vector
attr source transmissionStateChanged
attr title "Radio transmission state"
vector 132 WsnNetwork.node[3].wlan packetDropInterfaceDown:vector(packetBytes) ETV
attr interpolationmode none
attr recordingmode vector(packetBytes)
attr source packetDropReasonIsInterfaceDown(packetDropped)
attr title "packet drops: interface down, packetBytes"
vector 133 WsnNetwork.node[3].wlan packetDropNoCarrier:vector(packetBytes) ETV
attr interpolationmode none
attr recordingmode vector(packetBytes)
attr source packetDropReasonIsNoCarrier(packetDropped)
attr title "packet drops: no carrier, packetBytes"
vector 134 WsnNetwork.node[4].energyStorage powerConsumption:vector ETV
attr interpolationmode sample-hold
attr recordingmode vector
attr source powerConsumptionChanged
attr title "Power consumption"
attr unit W
vector 135 WsnNetwork.node[4].energyStorage powerGeneration:vector ETV
attr interpolationmode sample-hold
attr recordingmode vector
attr source powerGenerationChanged
attr title "Power generation"
attr unit W
vector 136 WsnNetwork.node[4].energyStorage residualEnergyCapacity:vector ETV
attr interpolationmode linear
attr recordingmode vector
attr source residualEnergyCapacityChanged
attr title "Residual energy capacity"
attr unit J
vector 137 WsnNetwork.node[4].app packetSent:vector ETV
attr recordingmode vector
vector 138 WsnNetwork.node[4].routing packetReceived:vector ETV
attr recordingmode vector
vector 139 WsnNetwork.node[4].routing endToEndDelay:vector ETV
attr recordingmode vector
vector 140 WsnNetwork.node[4].wlan.queue queueLength:vector ETV
attr autoWarmupFilter false
attr interpolationmode sample-hold
attr recordingmode vector
attr source "warmup(atomic(constant0(packetPushEnded) + count(packetPushStarted) - count(packetPulled) - count(packetRemoved) - count(packetDropped)))"
attr title "queue length"
attr unit pk
vector 141 WsnNetwork.node[4].wlan.queue queueBitLength:vector ETV
attr autoWarmupFilter false
attr interpolationmode sample-hold
attr recordingmode vector
attr source "warmup(atomic(constant0(packetPushEnded) + sum(packetLength(packetPushStarted)) - sum(packetLength(packetPulled)) - sum(packetLength(packetRemoved)) - sum(packetLength(packetDropped))))"
attr title "queue bit length"
attr unit b
vector 142 WsnNetwork.node[4].wlan.queue queueingTime:vector ETV
attr interpolationmode none
attr recordingmode vector
attr source queueingTime(packetPulled)
attr title "queueing times"
attr unit s
vector 143 WsnNetwork.node[4].wlan.queue incomingPacketLengths:vector ETV
attr interpolationmode none
attr recordingmode vector
attr source packetLength(packetPushStarted)
attr title "incoming packet lengths"
attr unit b
vector 144 WsnNetwork.node[4].wlan.queue incomingDataRate:vector ETV
attr interpolationmode linear
attr recordingmode vector
attr source throughput(packetPushStarted)
attr title "incoming datarate"
attr unit bps
vector 145 WsnNetwork.node[4].wlan.queue outgoingPacketLengths:vector ETV
attr interpolationmode none
attr recordingmode vector
attr source packetLength(packetPulled)
attr title "outgoing packet lengths"
attr unit b
vector 146 WsnNetwork.node[4].wlan.queue outgoingDataRate:vector ETV
attr interpolationmode linear
attr recordingmode vector
attr source throughput(packetPulled)
attr title "outgoing datarate"
attr unit bps
vector 147 WsnNetwork.node[4].wlan.queue droppedPacketLengthsQueueOverflow:vector ETV
attr interpolationmode none
attr recordingmode vector
attr source packetLength(packetDropReasonIsQueueOverflow(packetDropped))
attr title "dropped packet lengths: queue overflow"
attr unit b
vector 148 WsnNetwork.node[4].wlan.queue flowQueueingTime:vector ETV
attr interpolationmode none
attr recordingmode vector
attr source queueingTime(demuxFlow(packetPulled))
attr title "flow queueing times"
attr unit s
vector 149 WsnNetwork.node[4].wlan.queue flowIncomingDataRate:vector ETV
attr interpolationmode linear
attr recordingmode vector
attr source throughput(flowPacketLength(demuxFlow(packetPushStarted)))
attr title "flow specific incoming data rate"
attr unit bps
vector 150 WsnNetwork.node[4].wlan.queue flowOutgoingDataRate:vector ETV
attr interpolationmode linear
attr recordingmode vector
attr source throughput(flowPacketLength(demuxFlow(packetPulled)))
attr title "flow specific outgoing data rate"
attr unit bps
vector 151 WsnNetwork.node[4].wlan.mac packetDropNotAddressToUs:vector(packetBytes) ETV
attr interpolationmode none
attr recordingmode vector(packetBytes)
attr source packetDropReasonIsNotAddressedToUs(packetDropped)
attr title "packet drop: not addressed to us, packetBytes"
vector 152 WsnNetwork.node[4].wlan.mac packetDropIncorrectlyReceived:vector(packetBytes) ETV
attr interpolationmode none
attr recordingmode vector(packetBytes)
attr source packetDropReasonIsIncorrectlyReceived(packetDropped)
attr title "packet drop: incorrectly received, packetBytes"
vector 153 WsnNetwork.node[4].wlan.mac packetDropQueueOverflow:vector(packetBytes) ETV
attr interpolationmode none
attr recordingmode vector(packetBytes)
attr source packetDropReasonIsQueueOverflow(packetDropped)
attr title "packet drop: queue overflow, packetBytes"
vector 154 WsnNetwork.node[4].wlan.mac packetDropRetryLimitReached:vector(packetBytes) ETV
attr interpolationmode none
attr recordingmode vector(packetBytes)
attr source packetDropReasonIsRetryLimitReached(packetDropped)
attr title "packet drop: retry limit reached, packetBytes"
vector 155 WsnNetwork.node[4].wlan.mac packetDropBackoffLimitReached:vector(packetBytes) ETV
attr interpolationmode none
attr recordingmode vector(packetBytes)
attr source packetDropReasonIsCongestion(packetDropped)
attr title "packet drop: backoff limit reached, packetBytes"
vector 156 WsnNetwork.node[4].wlan.radio radioMode:vector ETV
attr interpolationmode sample-hold
attr recordingmode vector
attr source radioModeChanged
attr title "Radio mode"
vector 157 WsnNetwork.node[4].wlan.radio receptionState:vector ETV
attr interpolationmode sample-hold
attr recordingmode vector
attr source receptionStateChanged
attr title "Radio reception state"
vector 158 WsnNetwork.node[4].wlan.radio transmissionState:vector ETV
attr interpolationmode sample-hold
attr recordingmode vector
attr source transmissionStateChanged
attr title "Radio transmission state"
vector 159 WsnNetwork.node[4].wlan packetDropInterfaceDown:vector(packetBytes) ETV
attr interpolationmode none
attr recordingmode vector(packetBytes)
attr source packetDropReasonIsInterfaceDown(packetDropped)
attr title "packet drops: interface down, packetBytes"
vector 160 WsnNetwork.node[4].wlan packetDropNoCarrier:vector(packetBytes) ETV
attr interpolationmode none
attr recordingmode vector(packetBytes)
attr source packetDropReasonIsNoCarrier(packetDropped)
attr title "packet drops: no carrier, packetBytes"
vector 161 WsnNetwork.node[5].energyStorage powerConsumption:vector ETV
attr interpolationmode sample-hold
attr recordingmode vector
attr source powerConsumptionChanged
attr title "Power consumption"
attr unit W
vector 162 WsnNetwork.node[5].energyStorage powerGeneration:vector ETV
attr interpolationmode sample-hold
attr recordingmode vector
attr source powerGenerationChanged
attr title "Power generation"
attr unit W
vector 163 WsnNetwork.node[5].energyStorage residualEnergyCapacity:vector ETV
attr interpolationmode linear
attr recordingmode vector
attr source residualEnergyCapacityChanged
attr title "Residual energy capacity"
attr unit J
vector 164 WsnNetwork.node[5].app packetSent:vector ETV
attr recordingmode vector
vector 165 WsnNetwork.node[5].routing packetReceived:vector ETV
attr recordingmode vector
vector 166 WsnNetwork.node[5].routing endToEndDelay:vector ETV
attr recordingmode vector
vector 167 WsnNetwork.node[5].wlan.queue queueLength:vector ETV
attr autoWarmupFilter false
attr interpolationmode sample-hold
attr recordingmode vector
attr source "warmup(atomic(constant0(packetPushEnded) + count(packetPushStarted) - count(packetPulled) - count(packetRemoved) - count(packetDropped)))"
attr title "queue length"
attr unit pk
vector 168 WsnNetwork.node[5].wlan.queue queueBitLength:vector ETV
attr autoWarmupFilter false
attr interpolationmode sample-hold
attr recordingmode vector
attr source "warmup(atomic(constant0(packetPushEnded) + sum(packetLength(packetPushStarted)) - sum(packetLength(packetPulled)) - sum(packetLength(packetRemoved)) - sum(packetLength(packetDropped))))"
attr title "queue bit length"
attr unit b
vector 169 WsnNetwork.node[5].wlan.queue queueingTime:vector ETV
attr interpolationmode none
attr recordingmode vector
attr source queueingTime(packetPulled)
attr title "queueing times"
attr unit s
vector 170 WsnNetwork.node[5].wlan.queue incomingPacketLengths:vector ETV
attr interpolationmode none
attr recordingmode vector
attr source packetLength(packetPushStarted)
attr title "incoming packet lengths"
attr unit b
vector 171 WsnNetwork.node[5].wlan.queue incomingDataRate:vector ETV
attr interpolationmode linear
attr recordingmode vector
attr source throughput(packetPushStarted)
attr title "incoming datarate"
attr unit bps
vector 172 WsnNetwork.node[5].wlan.queue outgoingPacketLengths:vector ETV
attr interpolationmode none
attr recordingmode vector
attr source packetLength(packetPulled)
attr title "outgoing packet lengths"
attr unit b
vector 173 WsnNetwork.node[5].wlan.queue outgoingDataRate:vector ETV
attr interpolationmode linear
attr recordingmode vector
attr source throughput(packetPulled)
attr title "outgoing datarate"
attr unit bps
vector 174 WsnNetwork.node[5].wlan.queue droppedPacketLengthsQueueOverflow:vector ETV
attr interpolationmode none
attr recordingmode vector
attr source packetLength(packetDropReasonIsQueueOverflow(packetDropped))
attr title "dropped packet lengths: queue overflow"
attr unit b
vector 175 WsnNetwork.node[5].wlan.queue flowQueueingTime:vector ETV
attr interpolationmode none
attr recordingmode vector
attr source queueingTime(demuxFlow(packetPulled))
attr title "flow queueing times"
attr unit s
vector 176 WsnNetwork.node[5].wlan.queue flowIncomingDataRate:vector ETV
attr interpolationmode linear
attr recordingmode vector
attr source throughput(flowPacketLength(demuxFlow(packetPushStarted)))
attr title "flow specific incoming data rate"
attr unit bps
vector 177 WsnNetwork.node[5].wlan.queue flowOutgoingDataRate:vector ETV
attr interpolationmode linear
attr recordingmode vector
attr source throughput(flowPacketLength(demuxFlow(packetPulled)))
attr title "flow specific outgoing data rate"
attr unit bps
vector 178 WsnNetwork.node[5].wlan.mac packetDropNotAddressToUs:vector(packetBytes) ETV
attr interpolationmode none
attr recordingmode vector(packetBytes)
attr source packetDropReasonIsNotAddressedToUs(packetDropped)
attr title "packet drop: not addressed to us, packetBytes"
vector 179 WsnNetwork.node[5].wlan.mac packetDropIncorrectlyReceived:vector(packetBytes) ETV
attr interpolationmode none
attr recordingmode vector(packetBytes)
attr source packetDropReasonIsIncorrectlyReceived(packetDropped)
attr title "packet drop: incorrectly received, packetBytes"
vector 180 WsnNetwork.node[5].wlan.mac packetDropQueueOverflow:vector(packetBytes) ETV
attr interpolationmode none
attr recordingmode vector(packetBytes)
attr source packetDropReasonIsQueueOverflow(packetDropped)
attr title "packet drop: queue overflow, packetBytes"
vector 181 WsnNetwork.node[5].wlan.mac packetDropRetryLimitReached:vector(packetBytes) ETV
attr interpolationmode none
attr recordingmode vector(packetBytes)
attr source packetDropReasonIsRetryLimitReached(packetDropped)
attr title "packet drop: retry limit reached, packetBytes"
vector 182 WsnNetwork.node[5].wlan.mac packetDropBackoffLimitReached:vector(packetBytes) ETV
attr interpolationmode none
attr recordingmode vector(packetBytes)
attr source packetDropReasonIsCongestion(packetDropped)
attr title "packet drop: backoff limit reached, packetBytes"
vector 183 WsnNetwork.node[5].wlan.radio radioMode:vector ETV
attr interpolationmode sample-hold
attr recordingmode vector
attr source radioModeChanged
attr title "Radio mode"
vector 184 WsnNetwork.node[5].wlan.radio receptionState:vector ETV
attr interpolationmode sample-hold
attr recordingmode vector
attr source receptionStateChanged
attr title "Radio reception state"
vector 185 WsnNetwork.node[5].wlan.radio transmissionState:vector ETV
attr interpolationmode sample-hold
attr recordingmode vector
attr source transmissionStateChanged
attr title "Radio transmission state"
vector 186 WsnNetwork.node[5].wlan packetDropInterfaceDown:vector(packetBytes) ETV
attr interpolationmode none
attr recordingmode vector(packetBytes)
attr source packetDropReasonIsInterfaceDown(packetDropped)
attr title "packet drops: interface down, packetBytes"
vector 187 WsnNetwork.node[5].wlan packetDropNoCarrier:vector(packetBytes) ETV
attr interpolationmode none
attr recordingmode vector(packetBytes)
attr source packetDropReasonIsNoCarrier(packetDropped)
attr title "packet drops: no carrier, packetBytes"
vector 188 WsnNetwork.node[6].energyStorage powerConsumption:vector ETV
attr interpolationmode sample-hold
attr recordingmode vector
attr source powerConsumptionChanged
attr title "Power consumption"
attr unit W
vector 189 WsnNetwork.node[6].energyStorage powerGeneration:vector ETV
attr interpolationmode sample-hold
attr recordingmode vector
attr source powerGenerationChanged
attr title "Power generation"
attr unit W
vector 190 WsnNetwork.node[6].energyStorage residualEnergyCapacity:vector ETV
attr interpolationmode linear
attr recordingmode vector
attr source residualEnergyCapacityChanged
attr title "Residual energy capacity"
attr unit J
vector 191 WsnNetwork.node[6].app packetSent:vector ETV
attr recordingmode vector
vector 192 WsnNetwork.node[6].routing packetReceived:vector ETV
attr recordingmode vector
vector 193 WsnNetwork.node[6].routing endToEndDelay:vector ETV
attr recordingmode vector
vector 194 WsnNetwork.node[6].wlan.queue queueLength:vector ETV
attr autoWarmupFilter false
attr interpolationmode sample-hold
attr recordingmode vector
attr source "warmup(atomic(constant0(packetPushEnded) + count(packetPushStarted) - count(packetPulled) - count(packetRemoved) - count(packetDropped)))"
attr title "queue length"
attr unit pk
vector 195 WsnNetwork.node[6].wlan.queue queueBitLength:vector ETV
attr autoWarmupFilter false
attr interpolationmode sample-hold
attr recordingmode vector
attr source "warmup(atomic(constant0(packetPushEnded) + sum(packetLength(packetPushStarted)) - sum(packetLength(packetPulled)) - sum(packetLength(packetRemoved)) - sum(packetLength(packetDropped))))"
attr title "queue bit length"
attr unit b
vector 196 WsnNetwork.node[6].wlan.queue queueingTime:vector ETV
attr interpolationmode none
attr recordingmode vector
attr source queueingTime(packetPulled)
attr title "queueing times"
attr unit s
vector 197 WsnNetwork.node[6].wlan.queue incomingPacketLengths:vector ETV
attr interpolationmode none
attr recordingmode vector
attr source packetLength(packetPushStarted)
attr title "incoming packet lengths"
attr unit b
vector 198 WsnNetwork.node[6].wlan.queue incomingDataRate:vector ETV
attr interpolationmode linear
attr recordingmode vector
attr source throughput(packetPushStarted)
attr title "incoming datarate"
attr unit bps
vector 199 WsnNetwork.node[6].wlan.queue outgoingPacketLengths:vector ETV
attr interpolationmode none
attr recordingmode vector
attr source packetLength(packetPulled)
attr title "outgoing packet lengths"
attr unit b
vector 200 WsnNetwork.node[6].wlan.queue outgoingDataRate:vector ETV
attr interpolationmode linear
attr recordingmode vector
attr source throughput(packetPulled)
attr title "outgoing datarate"
attr unit bps
vector 201 WsnNetwork.node[6].wlan.queue droppedPacketLengthsQueueOverflow:vector ETV
attr interpolationmode none
attr recordingmode vector
attr source packetLength(packetDropReasonIsQueueOverflow(packetDropped))
attr title "dropped packet lengths: queue overflow"
attr unit b
vector 202 WsnNetwork.node[6].wlan.queue flowQueueingTime:vector ETV
attr interpolationmode none
attr recordingmode vector
attr source queueingTime(demuxFlow(packetPulled))
attr title "flow queueing times"
attr unit s
vector 203 WsnNetwork.node[6].wlan.queue flowIncomingDataRate:vector ETV
attr interpolationmode linear
attr recordingmode vector
attr source throughput(flowPacketLength(demuxFlow(packetPushStarted)))
attr title "flow specific incoming data rate"
attr unit bps
vector 204 WsnNetwork.node[6].wlan.queue flowOutgoingDataRate:vector ETV
attr interpolationmode linear
attr recordingmode vector
attr source throughput(flowPacketLength(demuxFlow(packetPulled)))
attr title "flow specific outgoing data rate"
attr unit bps
vector 205 WsnNetwork.node[6].wlan.mac packetDropNotAddressToUs:vector(packetBytes) ETV
attr interpolationmode none
attr recordingmode vector(packetBytes)
attr source packetDropReasonIsNotAddressedToUs(packetDropped)
attr title "packet drop: not addressed to us, packetBytes"
vector 206 WsnNetwork.node[6].wlan.mac packetDropIncorrectlyReceived:vector(packetBytes) ETV
attr interpolationmode none
attr recordingmode vector(packetBytes)
attr source packetDropReasonIsIncorrectlyReceived(packetDropped)
attr title "packet drop: incorrectly received, packetBytes"
vector 207 WsnNetwork.node[6].wlan.mac packetDropQueueOverflow:vector(packetBytes) ETV
attr interpolationmode none
attr recordingmode vector(packetBytes)
attr source packetDropReasonIsQueueOverflow(packetDropped)
attr title "packet drop: queue overflow, packetBytes"
vector 208 WsnNetwork.node[6].wlan.mac packetDropRetryLimitReached:vector(packetBytes) ETV
attr interpolationmode none
attr recordingmode vector(packetBytes)
attr source packetDropReasonIsRetryLimitReached(packetDropped)
attr title "packet drop: retry limit reached, packetBytes"
vector 209 WsnNetwork.node[6].wlan.mac packetDropBackoffLimitReached:vector(packetBytes) ETV
attr interpolationmode none
attr recordingmode vector(packetBytes)
attr source packetDropReasonIsCongestion(packetDropped)
attr title "packet drop: backoff limit reached, packetBytes"
vector 210 WsnNetwork.node[6].wlan.radio radioMode:vector ETV
attr interpolationmode sample-hold
attr recordingmode vector
attr source radioModeChanged
attr title "Radio mode"
vector 211 WsnNetwork.node[6].wlan.radio receptionState:vector ETV
attr interpolationmode sample-hold
attr recordingmode vector
attr source receptionStateChanged
attr title "Radio reception state"
vector 212 WsnNetwork.node[6].wlan.radio transmissionState:vector ETV
attr interpolationmode sample-hold
attr recordingmode vector
attr source transmissionStateChanged
attr title "Radio transmission state"
vector 213 WsnNetwork.node[6].wlan packetDropInterfaceDown:vector(packetBytes) ETV
attr interpolationmode none
attr recordingmode vector(packetBytes)
attr source packetDropReasonIsInterfaceDown(packetDropped)
attr title "packet drops: interface down, packetBytes"
vector 214 WsnNetwork.node[6].wlan packetDropNoCarrier:vector(packetBytes) ETV
attr interpolationmode none
attr recordingmode vector(packetBytes)
attr source packetDropReasonIsNoCarrier(packetDropped)
attr title "packet drops: no carrier, packetBytes"
vector 215 WsnNetwork.node[7].energyStorage powerConsumption:vector ETV
attr interpolationmode sample-hold
attr recordingmode vector
attr source powerConsumptionChanged
attr title "Power consumption"
attr unit W
vector 216 WsnNetwork.node[7].energyStorage powerGeneration:vector ETV
attr interpolationmode sample-hold
attr recordingmode vector
attr source powerGenerationChanged
attr title "Power generation"
attr unit W
vector 217 WsnNetwork.node[7].energyStorage residualEnergyCapacity:vector ETV
attr interpolationmode linear
attr recordingmode vector
attr source residualEnergyCapacityChanged
attr title "Residual energy capacity"
attr unit J
vector 218 WsnNetwork.node[7].app packetSent:vector ETV
attr recordingmode vector
vector 219 WsnNetwork.node[7].routing packetReceived:vector ETV
attr recordingmode vector
vector 220 WsnNetwork.node[7].routing endToEndDelay:vector ETV
attr recordingmode vector
vector 221 WsnNetwork.node[7].wlan.queue queueLength:vector ETV
attr autoWarmupFilter false
attr interpolationmode sample-hold
attr recordingmode vector
attr source "warmup(atomic(constant0(packetPushEnded) + count(packetPushStarted) - count(packetPulled) - count(packetRemoved) - count(packetDropped)))"
attr title "queue length"
attr unit pk
vector 222 WsnNetwork.node[7].wlan.queue queueBitLength:vector ETV
attr autoWarmupFilter false
attr interpolationmode sample-hold
attr recordingmode vector
attr source "warmup(atomic(constant0(packetPushEnded) + sum(packetLength(packetPushStarted)) - sum(packetLength(packetPulled)) - sum(packetLength(packetRemoved)) - sum(packetLength(packetDropped))))"
attr title "queue bit length"
attr unit b
vector 223 WsnNetwork.node[7].wlan.queue queueingTime:vector ETV
attr interpolationmode none
attr recordingmode vector
attr source queueingTime(packetPulled)
attr title "queueing times"
attr unit s
vector 224 WsnNetwork.node[7].wlan.queue incomingPacketLengths:vector ETV
attr interpolationmode none
attr recordingmode vector
attr source packetLength(packetPushStarted)
attr title "incoming packet lengths"
attr unit b
vector 225 WsnNetwork.node[7].wlan.queue incomingDataRate:vector ETV
attr interpolationmode linear
attr recordingmode vector
attr source throughput(packetPushStarted)
attr title "incoming datarate"
attr unit bps
vector 226 WsnNetwork.node[7].wlan.queue outgoingPacketLengths:vector ETV
attr interpolationmode none
attr recordingmode vector
attr source packetLength(packetPulled)
attr title "outgoing packet lengths"
attr unit b
vector 227 WsnNetwork.node[7].wlan.queue outgoingDataRate:vector ETV
attr interpolationmode linear
attr recordingmode vector
attr source throughput(packetPulled)
attr title "outgoing datarate"
attr unit bps
vector 228 WsnNetwork.node[7].wlan.queue droppedPacketLengthsQueueOverflow:vector ETV
attr interpolationmode none
attr recordingmode vector
attr source packetLength(packetDropReasonIsQueueOverflow(packetDropped))
attr title "dropped packet lengths: queue overflow"
attr unit b
vector 229 WsnNetwork.node[7].wlan.queue flowQueueingTime:vector ETV
attr interpolationmode none
attr recordingmode vector
attr source queueingTime(demuxFlow(packetPulled))
attr title "flow queueing times"
attr unit s
vector 230 WsnNetwork.node[7].wlan.queue flowIncomingDataRate:vector ETV
attr interpolationmode linear
attr recordingmode vector
attr source throughput(flowPacketLength(demuxFlow(packetPushStarted)))
attr title "flow specific incoming data rate"
attr unit bps
vector 231 WsnNetwork.node[7].wlan.queue flowOutgoingDataRate:vector ETV
attr interpolationmode linear
attr recordingmode vector
attr source throughput(flowPacketLength(demuxFlow(packetPulled)))
attr title "flow specific outgoing data rate"
attr unit bps
vector 232 WsnNetwork.node[7].wlan.mac packetDropNotAddressToUs:vector(packetBytes) ETV
attr interpolationmode none
attr recordingmode vector(packetBytes)
attr source packetDropReasonIsNotAddressedToUs(packetDropped)
attr title "packet drop: not addressed to us, packetBytes"
vector 233 WsnNetwork.node[7].wlan.mac packetDropIncorrectlyReceived:vector(packetBytes) ETV
attr interpolationmode none
attr recordingmode vector(packetBytes)
attr source packetDropReasonIsIncorrectlyReceived(packetDropped)
attr title "packet drop: incorrectly received, packetBytes"
vector 234 WsnNetwork.node[7].wlan.mac packetDropQueueOverflow:vector(packetBytes) ETV
attr interpolationmode none
attr recordingmode vector(packetBytes)
attr source packetDropReasonIsQueueOverflow(packetDropped)
attr title "packet drop: queue overflow, packetBytes"
vector 235 WsnNetwork.node[7].wlan.mac packetDropRetryLimitReached:vector(packetBytes) ETV
attr interpolationmode none
attr recordingmode vector(packetBytes)
attr source packetDropReasonIsRetryLimitReached(packetDropped)
attr title "packet drop: retry limit reached, packetBytes"
vector 236 WsnNetwork.node[7].wlan.mac packetDropBackoffLimitReached:vector(packetBytes) ETV
attr interpolationmode none
attr recordingmode vector(packetBytes)
attr source packetDropReasonIsCongestion(packetDropped)
attr title "packet drop: backoff limit reached, packetBytes"
vector 237 WsnNetwork.node[7].wlan.radio radioMode:vector ETV
attr interpolationmode sample-hold
attr recordingmode vector
attr source radioModeChanged
attr title "Radio mode"
vector 238 WsnNetwork.node[7].wlan.radio receptionState:vector ETV
attr interpolationmode sample-hold
attr recordingmode vector
attr source receptionStateChanged
attr title "Radio reception state"
vector 239 WsnNetwork.node[7].wlan.radio transmissionState:vector ETV
attr interpolationmode sample-hold
attr recordingmode vector
attr source transmissionStateChanged
attr title "Radio transmission state"
vector 240 WsnNetwork.node[7].wlan packetDropInterfaceDown:vector(packetBytes) ETV
attr interpolationmode none
attr recordingmode vector(packetBytes)
attr source packetDropReasonIsInterfaceDown(packetDropped)
attr title "packet drops: interface down, packetBytes"
vector 241 WsnNetwork.node[7].wlan packetDropNoCarrier:vector(packetBytes) ETV
attr interpolationmode none
attr recordingmode vector(packetBytes)
attr source packetDropReasonIsNoCarrier(packetDropped)
attr title "packet drops: no carrier, packetBytes"
vector 242 WsnNetwork.node[8].energyStorage powerConsumption:vector ETV
attr interpolationmode sample-hold
attr recordingmode vector
attr source powerConsumptionChanged
attr title "Power consumption"
attr unit W
vector 243 WsnNetwork.node[8].energyStorage powerGeneration:vector ETV
attr interpolationmode sample-hold
attr recordingmode vector
attr source powerGenerationChanged
attr title "Power generation"
attr unit W
vector 244 WsnNetwork.node[8].energyStorage residualEnergyCapacity:vector ETV
attr interpolationmode linear
attr recordingmode vector
attr source residualEnergyCapacityChanged
attr title "Residual energy capacity"
attr unit J
vector 245 WsnNetwork.node[8].app packetSent:vector ETV
attr recordingmode vector
vector 246 WsnNetwork.node[8].routing packetReceived:vector ETV
attr recordingmode vector
vector 247 WsnNetwork.node[8].routing endToEndDelay:vector ETV
attr recordingmode vector
vector 248 WsnNetwork.node[8].wlan.queue queueLength:vector ETV
attr autoWarmupFilter false
attr interpolationmode sample-hold
attr recordingmode vector
attr source "warmup(atomic(constant0(packetPushEnded) + count(packetPushStarted) - count(packetPulled) - count(packetRemoved) - count(packetDropped)))"
attr title "queue length"
attr unit pk
vector 249 WsnNetwork.node[8].wlan.queue queueBitLength:vector ETV
attr autoWarmupFilter false
attr interpolationmode sample-hold
attr recordingmode vector
attr source "warmup(atomic(constant0(packetPushEnded) + sum(packetLength(packetPushStarted)) - sum(packetLength(packetPulled)) - sum(packetLength(packetRemoved)) - sum(packetLength(packetDropped))))"
attr title "queue bit length"
attr unit b
vector 250 WsnNetwork.node[8].wlan.queue queueingTime:vector ETV
attr interpolationmode none
attr recordingmode vector
attr source queueingTime(packetPulled)
attr title "queueing times"
attr unit s
vector 251 WsnNetwork.node[8].wlan.queue incomingPacketLengths:vector ETV
attr interpolationmode none
attr recordingmode vector
attr source packetLength(packetPushStarted)
attr title "incoming packet lengths"
attr unit b
vector 252 WsnNetwork.node[8].wlan.queue incomingDataRate:vector ETV
attr interpolationmode linear
attr recordingmode vector
attr source throughput(packetPushStarted)
attr title "incoming datarate"
attr unit bps
vector 253 WsnNetwork.node[8].wlan.queue outgoingPacketLengths:vector ETV
attr interpolationmode none
attr recordingmode vector
attr source packetLength(packetPulled)
attr title "outgoing packet lengths"
attr unit b
vector 254 WsnNetwork.node[8].wlan.queue outgoingDataRate:vector ETV
attr interpolationmode linear
attr recordingmode vector
attr source throughput(packetPulled)
attr title "outgoing datarate"
attr unit bps
vector 255 WsnNetwork.node[8].wlan.queue droppedPacketLengthsQueueOverflow:vector ETV
attr interpolationmode none
attr recordingmode vector
attr source packetLength(packetDropReasonIsQueueOverflow(packetDropped))
attr title "dropped packet lengths: queue overflow"
attr unit b
vector 256 WsnNetwork.node[8].wlan.queue flowQueueingTime:vector ETV
attr interpolationmode none
attr recordingmode vector
attr source queueingTime(demuxFlow(packetPulled))
attr title "flow queueing times"
attr unit s
vector 257 WsnNetwork.node[8].wlan.queue flowIncomingDataRate:vector ETV
attr interpolationmode linear
attr recordingmode vector
attr source throughput(flowPacketLength(demuxFlow(packetPushStarted)))
attr title "flow specific incoming data rate"
attr unit bps
vector 258 WsnNetwork.node[8].wlan.queue flowOutgoingDataRate:vector ETV
attr interpolationmode linear
attr recordingmode vector
attr source throughput(flowPacketLength(demuxFlow(packetPulled)))
attr title "flow specific outgoing data rate"
attr unit bps
vector 259 WsnNetwork.node[8].wlan.mac packetDropNotAddressToUs:vector(packetBytes) ETV
attr interpolationmode none
attr recordingmode vector(packetBytes)
attr source packetDropReasonIsNotAddressedToUs(packetDropped)
attr title "packet drop: not addressed to us, packetBytes"
vector 260 WsnNetwork.node[8].wlan.mac packetDropIncorrectlyReceived:vector(packetBytes) ETV
attr interpolationmode none
attr recordingmode vector(packetBytes)
attr source packetDropReasonIsIncorrectlyReceived(packetDropped)
attr title "packet drop: incorrectly received, packetBytes"
vector 261 WsnNetwork.node[8].wlan.mac packetDropQueueOverflow:vector(packetBytes) ETV
attr interpolationmode none
attr recordingmode vector(packetBytes)
attr source packetDropReasonIsQueueOverflow(packetDropped)
attr title "packet drop: queue overflow, packetBytes"
vector 262 WsnNetwork.node[8].wlan.mac packetDropRetryLimitReached:vector(packetBytes) ETV
attr interpolationmode none
attr recordingmode vector(packetBytes)
attr source packetDropReasonIsRetryLimitReached(packetDropped)
attr title "packet drop: retry limit reached, packetBytes"
vector 263 WsnNetwork.node[8].wlan.mac packetDropBackoffLimitReached:vector(packetBytes) ETV
attr interpolationmode none
attr recordingmode vector(packetBytes)
attr source packetDropReasonIsCongestion(packetDropped)
attr title "packet drop: backoff limit reached, packetBytes"
vector 264 WsnNetwork.node[8].wlan.radio radioMode:vector ETV
attr interpolationmode sample-hold
attr recordingmode vector
attr source radioModeChanged
attr title "Radio mode"
vector 265 WsnNetwork.node[8].wlan.radio receptionState:vector ETV
attr interpolationmode sample-hold
attr recordingmode vector
attr source receptionStateChanged
attr title "Radio reception state"
vector 266 WsnNetwork.node[8].wlan.radio transmissionState:vector ETV
attr interpolationmode sample-hold
attr recordingmode vector
attr source transmissionStateChanged
attr title "Radio transmission state"
vector 267 WsnNetwork.node[8].wlan packetDropInterfaceDown:vector(packetBytes) ETV
attr interpolationmode none
attr recordingmode vector(packetBytes)
attr source packetDropReasonIsInterfaceDown(packetDropped)
attr title "packet drops: interface down, packetBytes"
vector 268 WsnNetwork.node[8].wlan packetDropNoCarrier:vector(packetBytes) ETV
attr interpolationmode none
attr recordingmode vector(packetBytes)
attr source packetDropReasonIsNoCarrier(packetDropped)
attr title "packet drops: no carrier, packetBytes"
vector 269 WsnNetwork.node[9].energyStorage powerConsumption:vector ETV
attr interpolationmode sample-hold
attr recordingmode vector
attr source powerConsumptionChanged
attr title "Power consumption"
attr unit W
vector 270 WsnNetwork.node[9].energyStorage powerGeneration:vector ETV
attr interpolationmode sample-hold
attr recordingmode vector
attr source powerGenerationChanged
attr title "Power generation"
attr unit W
vector 271 WsnNetwork.node[9].energyStorage residualEnergyCapacity:vector ETV
attr interpolationmode linear
attr recordingmode vector
attr source residualEnergyCapacityChanged
attr title "Residual energy capacity"
attr unit J
vector 272 WsnNetwork.node[9].app packetSent:vector ETV
attr recordingmode vector
vector 273 WsnNetwork.node[9].routing packetReceived:vector ETV
attr recordingmode vector
vector 274 WsnNetwork.node[9].routing endToEndDelay:vector ETV
attr recordingmode vector
vector 275 WsnNetwork.node[9].wlan.queue queueLength:vector ETV
attr autoWarmupFilter false
attr interpolationmode sample-hold
attr recordingmode vector
attr source "warmup(atomic(constant0(packetPushEnded) + count(packetPushStarted) - count(packetPulled) - count(packetRemoved) - count(packetDropped)))"
attr title "queue length"
attr unit pk
vector 276 WsnNetwork.node[9].wlan.queue queueBitLength:vector ETV
attr autoWarmupFilter false
attr interpolationmode sample-hold
attr recordingmode vector
attr source "warmup(atomic(constant0(packetPushEnded) + sum(packetLength(packetPushStarted)) - sum(packetLength(packetPulled)) - sum(packetLength(packetRemoved)) - sum(packetLength(packetDropped))))"
attr title "queue bit length"
attr unit b
vector 277 WsnNetwork.node[9].wlan.queue queueingTime:vector ETV
attr interpolationmode none
attr recordingmode vector
attr source queueingTime(packetPulled)
attr title "queueing times"
attr unit s
vector 278 WsnNetwork.node[9].wlan.queue incomingPacketLengths:vector ETV
attr interpolationmode none
attr recordingmode vector
attr source packetLength(packetPushStarted)
attr title "incoming packet lengths"
attr unit b
vector 279 WsnNetwork.node[9].wlan.queue incomingDataRate:vector ETV
attr interpolationmode linear
attr recordingmode vector
attr source throughput(packetPushStarted)
attr title "incoming datarate"
attr unit bps
vector 280 WsnNetwork.node[9].wlan.queue outgoingPacketLengths:vector ETV
attr interpolationmode none
attr recordingmode vector
attr source packetLength(packetPulled)
attr title "outgoing packet lengths"
attr unit b
vector 281 WsnNetwork.node[9].wlan.queue outgoingDataRate:vector ETV
attr interpolationmode linear
attr recordingmode vector
attr source throughput(packetPulled)
attr title "outgoing datarate"
attr unit bps
vector 282 WsnNetwork.node[9].wlan.queue droppedPacketLengthsQueueOverflow:vector ETV
attr interpolationmode none
attr recordingmode vector
attr source packetLength(packetDropReasonIsQueueOverflow(packetDropped))
attr title "dropped packet lengths: queue overflow"
attr unit b
vector 283 WsnNetwork.node[9].wlan.queue flowQueueingTime:vector ETV
attr interpolationmode none
attr recordingmode vector
attr source queueingTime(demuxFlow(packetPulled))
attr title "flow queueing times"
attr unit s
vector 284 WsnNetwork.node[9].wlan.queue flowIncomingDataRate:vector ETV
attr interpolationmode linear
attr recordingmode vector
attr source throughput(flowPacketLength(demuxFlow(packetPushStarted)))
attr title "flow specific incoming data rate"
attr unit bps
vector 285 WsnNetwork.node[9].wlan.queue flowOutgoingDataRate:vector ETV
attr interpolationmode linear
attr recordingmode vector
attr source throughput(flowPacketLength(demuxFlow(packetPulled)))
attr title "flow specific outgoing data rate"
attr unit bps
vector 286 WsnNetwork.node[9].wlan.mac packetDropNotAddressToUs:vector(packetBytes) ETV
attr interpolationmode none
attr recordingmode vector(packetBytes)
attr source packetDropReasonIsNotAddressedToUs(packetDropped)
attr title "packet drop: not addressed to us, packetBytes"
vector 287 WsnNetwork.node[9].wlan.mac packetDropIncorrectlyReceived:vector(packetBytes) ETV
attr interpolationmode none
attr recordingmode vector(packetBytes)
attr source packetDropReasonIsIncorrectlyReceived(packetDropped)
attr title "packet drop: incorrectly received, packetBytes"
vector 288 WsnNetwork.node[9].wlan.mac packetDropQueueOverflow:vector(packetBytes) ETV
attr interpolationmode none
attr recordingmode vector(packetBytes)
attr source packetDropReasonIsQueueOverflow(packetDropped)
attr title "packet drop: queue overflow, packetBytes"
vector 289 WsnNetwork.node[9].wlan.mac packetDropRetryLimitReached:vector(packetBytes) ETV
attr interpolationmode none
attr recordingmode vector(packetBytes)
attr source packetDropReasonIsRetryLimitReached(packetDropped)
attr title "packet drop: retry limit reached, packetBytes"
vector 290 WsnNetwork.node[9].wlan.mac packetDropBackoffLimitReached:vector(packetBytes) ETV
attr interpolationmode none
attr recordingmode vector(packetBytes)
attr source packetDropReasonIsCongestion(packetDropped)
attr title "packet drop: backoff limit reached, packetBytes"
vector 291 WsnNetwork.node[9].wlan.radio radioMode:vector ETV
attr interpolationmode sample-hold
attr recordingmode vector
attr source radioModeChanged
attr title "Radio mode"
vector 292 WsnNetwork.node[9].wlan.radio receptionState:vector ETV
attr interpolationmode sample-hold
attr recordingmode vector
attr source receptionStateChanged
attr title "Radio reception state"
vector 293 WsnNetwork.node[9].wlan.radio transmissionState:vector ETV
attr interpolationmode sample-hold
attr recordingmode vector
attr source transmissionStateChanged
attr title "Radio transmission state"
vector 294 WsnNetwork.node[9].wlan packetDropInterfaceDown:vector(packetBytes) ETV
attr interpolationmode none
attr recordingmode vector(packetBytes)
attr source packetDropReasonIsInterfaceDown(packetDropped)
attr title "packet drops: interface down, packetBytes"
vector 295 WsnNetwork.node[9].wlan packetDropNoCarrier:vector(packetBytes) ETV
attr interpolationmode none
attr recordingmode vector(packetBytes)
attr source packetDropReasonIsNoCarrier(packetDropped)
attr title "packet drops: no carrier, packetBytes"
vector 296 WsnNetwork.node[10].energyStorage powerConsumption:vector ETV
attr interpolationmode sample-hold
attr recordingmode vector
attr source powerConsumptionChanged
attr title "Power consumption"
attr unit W
vector 297 WsnNetwork.node[10].energyStorage powerGeneration:vector ETV
attr interpolationmode sample-hold
attr recordingmode vector
attr source powerGenerationChanged
attr title "Power generation"
attr unit W
vector 298 WsnNetwork.node[10].energyStorage residualEnergyCapacity:vector ETV
attr interpolationmode linear
attr recordingmode vector
attr source residualEnergyCapacityChanged
attr title "Residual energy capacity"
attr unit J
vector 299 WsnNetwork.node[10].app packetSent:vector ETV
attr recordingmode vector
vector 300 WsnNetwork.node[10].routing packetReceived:vector ETV
attr recordingmode vector
vector 301 WsnNetwork.node[10].routing endToEndDelay:vector ETV
attr recordingmode vector
vector 302 WsnNetwork.node[10].wlan.queue queueLength:vector ETV
attr autoWarmupFilter false
attr interpolationmode sample-hold
attr recordingmode vector
attr source "warmup(atomic(constant0(packetPushEnded) + count(packetPushStarted) - count(packetPulled) - count(packetRemoved) - count(packetDropped)))"
attr title "queue length"
attr unit pk
vector 303 WsnNetwork.node[10].wlan.queue queueBitLength:vector ETV
attr autoWarmupFilter false
attr interpolationmode sample-hold
attr recordingmode vector
attr source "warmup(atomic(constant0(packetPushEnded) + sum(packetLength(packetPushStarted)) - sum(packetLength(packetPulled)) - sum(packetLength(packetRemoved)) - sum(packetLength(packetDropped))))"
attr title "queue bit length"
attr unit b
vector 304 WsnNetwork.node[10].wlan.queue queueingTime:vector ETV
attr interpolationmode none
attr recordingmode vector
attr source queueingTime(packetPulled)
attr title "queueing times"
attr unit s
vector 305 WsnNetwork.node[10].wlan.queue incomingPacketLengths:vector ETV
attr interpolationmode none
attr recordingmode vector
attr source packetLength(packetPushStarted)
attr title "incoming packet lengths"
attr unit b
vector 306 WsnNetwork.node[10].wlan.queue incomingDataRate:vector ETV
attr interpolationmode linear
attr recordingmode vector
attr source throughput(packetPushStarted)
attr title "incoming datarate"
attr unit bps
vector 307 WsnNetwork.node[10].wlan.queue outgoingPacketLengths:vector ETV
attr interpolationmode none
attr recordingmode vector
attr source packetLength(packetPulled)
attr title "outgoing packet lengths"
attr unit b
vector 308 WsnNetwork.node[10].wlan.queue outgoingDataRate:vector ETV
attr interpolationmode linear
attr recordingmode vector
attr source throughput(packetPulled)
attr title "outgoing datarate"
attr unit bps
vector 309 WsnNetwork.node[10].wlan.queue droppedPacketLengthsQueueOverflow:vector ETV
attr interpolationmode none
attr recordingmode vector
attr source packetLength(packetDropReasonIsQueueOverflow(packetDropped))
attr title "dropped packet lengths: queue overflow"
attr unit b
vector 310 WsnNetwork.node[10].wlan.queue flowQueueingTime:vector ETV
attr interpolationmode none
attr recordingmode vector
attr source queueingTime(demuxFlow(packetPulled))
attr title "flow queueing times"
attr unit s
vector 311 WsnNetwork.node[10].wlan.queue flowIncomingDataRate:vector ETV
attr interpolationmode linear
attr recordingmode vector
attr source throughput(flowPacketLength(demuxFlow(packetPushStarted)))
attr title "flow specific incoming data rate"
attr unit bps
vector 312 WsnNetwork.node[10].wlan.queue flowOutgoingDataRate:vector ETV
attr interpolationmode linear
attr recordingmode vector
attr source throughput(flowPacketLength(demuxFlow(packetPulled)))
attr title "flow specific outgoing data rate"
attr unit bps
vector 313 WsnNetwork.node[10].wlan.mac packetDropNotAddressToUs:vector(packetBytes) ETV
attr interpolationmode none
attr recordingmode vector(packetBytes)
attr source packetDropReasonIsNotAddressedToUs(packetDropped)
attr title "packet drop: not addressed to us, packetBytes"
vector 314 WsnNetwork.node[10].wlan.mac packetDropIncorrectlyReceived:vector(packetBytes) ETV
attr interpolationmode none
attr recordingmode vector(packetBytes)
attr source packetDropReasonIsIncorrectlyReceived(packetDropped)
attr title "packet drop: incorrectly received, packetBytes"
vector 315 WsnNetwork.node[10].wlan.mac packetDropQueueOverflow:vector(packetBytes) ETV
attr interpolationmode none
attr recordingmode vector(packetBytes)
attr source packetDropReasonIsQueueOverflow(packetDropped)
attr title "packet drop: queue overflow, packetBytes"
vector 316 WsnNetwork.node[10].wlan.mac packetDropRetryLimitReached:vector(packetBytes) ETV
attr interpolationmode none
attr recordingmode vector(packetBytes)
attr source packetDropReasonIsRetryLimitReached(packetDropped)
attr title "packet drop: retry limit reached, packetBytes"
vector 317 WsnNetwork.node[10].wlan.mac packetDropBackoffLimitReached:vector(packetBytes) ETV
attr interpolationmode none
attr recordingmode vector(packetBytes)
attr source packetDropReasonIsCongestion(packetDropped)
attr title "packet drop: backoff limit reached, packetBytes"
vector 318 WsnNetwork.node[10].wlan.radio radioMode:vector ETV
attr interpolationmode sample-hold
attr recordingmode vector
attr source radioModeChanged
attr title "Radio mode"
vector 319 WsnNetwork.node[10].wlan.radio receptionState:vector ETV
attr interpolationmode sample-hold
attr recordingmode vector
attr source receptionStateChanged
attr title "Radio reception state"
vector 320 WsnNetwork.node[10].wlan.radio transmissionState:vector ETV
attr interpolationmode sample-hold
attr recordingmode vector
attr source transmissionStateChanged
attr title "Radio transmission state"
vector 321 WsnNetwork.node[10].wlan packetDropInterfaceDown:vector(packetBytes) ETV
attr interpolationmode none
attr recordingmode vector(packetBytes)
attr source packetDropReasonIsInterfaceDown(packetDropped)
attr title "packet drops: interface down, packetBytes"
vector 322 WsnNetwork.node[10].wlan packetDropNoCarrier:vector(packetBytes) ETV
attr interpolationmode none
attr recordingmode vector(packetBytes)
attr source packetDropReasonIsNoCarrier(packetDropped)
attr title "packet drops: no carrier, packetBytes"
vector 323 WsnNetwork.node[11].energyStorage powerConsumption:vector ETV
attr interpolationmode sample-hold
attr recordingmode vector
attr source powerConsumptionChanged
attr title "Power consumption"
attr unit W
vector 324 WsnNetwork.node[11].energyStorage powerGeneration:vector ETV
attr interpolationmode sample-hold
attr recordingmode vector
attr source powerGenerationChanged
attr title "Power generation"
attr unit W
vector 325 WsnNetwork.node[11].energyStorage residualEnergyCapacity:vector ETV
attr interpolationmode linear
attr recordingmode vector
attr source residualEnergyCapacityChanged
attr title "Residual energy capacity"
attr unit J
vector 326 WsnNetwork.node[11].app packetSent:vector ETV
attr recordingmode vector
vector 327 WsnNetwork.node[11].routing packetReceived:vector ETV
attr recordingmode vector
vector 328 WsnNetwork.node[11].routing endToEndDelay:vector ETV
attr recordingmode vector
vector 329 WsnNetwork.node[11].wlan.queue queueLength:vector ETV
attr autoWarmupFilter false
attr interpolationmode sample-hold
attr recordingmode vector
attr source "warmup(atomic(constant0(packetPushEnded) + count(packetPushStarted) - count(packetPulled) - count(packetRemoved) - count(packetDropped)))"
attr title "queue length"
attr unit pk
vector 330 WsnNetwork.node[11].wlan.queue queueBitLength:vector ETV
attr autoWarmupFilter false
attr interpolationmode sample-hold
attr recordingmode vector
attr source "warmup(atomic(constant0(packetPushEnded) + sum(packetLength(packetPushStarted)) - sum(packetLength(packetPulled)) - sum(packetLength(packetRemoved)) - sum(packetLength(packetDropped))))"
attr title "queue bit length"
attr unit b
vector 331 WsnNetwork.node[11].wlan.queue queueingTime:vector ETV
attr interpolationmode none
attr recordingmode vector
attr source queueingTime(packetPulled)
attr title "queueing times"
attr unit s
vector 332 WsnNetwork.node[11].wlan.queue incomingPacketLengths:vector ETV
attr interpolationmode none
attr recordingmode vector
attr source packetLength(packetPushStarted)
attr title "incoming packet lengths"
attr unit b
vector 333 WsnNetwork.node[11].wlan.queue incomingDataRate:vector ETV
attr interpolationmode linear
attr recordingmode vector
attr source throughput(packetPushStarted)
attr title "incoming datarate"
attr unit bps
vector 334 WsnNetwork.node[11].wlan.queue outgoingPacketLengths:vector ETV
attr interpolationmode none
attr recordingmode vector
attr source packetLength(packetPulled)
attr title "outgoing packet lengths"
attr unit b
vector 335 WsnNetwork.node[11].wlan.queue outgoingDataRate:vector ETV
attr interpolationmode linear
attr recordingmode vector
attr source throughput(packetPulled)
attr title "outgoing datarate"
attr unit bps
vector 336 WsnNetwork.node[11].wlan.queue droppedPacketLengthsQueueOverflow:vector ETV
attr interpolationmode none
attr recordingmode vector
attr source packetLength(packetDropReasonIsQueueOverflow(packetDropped))
attr title "dropped packet lengths: queue overflow"
attr unit b
[...]
attr recordingmode vector
vector 435 WsnNetwork.node[15].routing packetReceived:vector ETV
attr recordingmode vector
vector 436 WsnNetwork.node[15].routing endToEndDelay:vector ETV
attr recordingmode vector
vector 437 WsnNetwork.node[15].wlan.queue queueLength:vector ETV
attr autoWarmupFilter false
attr interpolationmode sample-hold
attr recordingmode vector
attr source "warmup(atomic(constant0(packetPushEnded) + count(packetPushStarted) - count(packetPulled) - count(packetRemoved) - count(packetDropped)))"
attr title "queue length"
attr unit pk
vector 438 WsnNetwork.node[15].wlan.queue queueBitLength:vector ETV
attr autoWarmupFilter false
attr interpolationmode sample-hold
attr recordingmode vector
attr source "warmup(atomic(constant0(packetPushEnded) + sum(packetLength(packetPushStarted)) - sum(packetLength(packetPulled)) - sum(packetLength(packetRemoved)) - sum(packetLength(packetDropped))))"
attr title "queue bit length"
attr unit b
vector 439 WsnNetwork.node[15].wlan.queue queueingTime:vector ETV
attr interpolationmode none
attr recordingmode vector
attr source queueingTime(packetPulled)
attr title "queueing times"
attr unit s
vector 440 WsnNetwork.node[15].wlan.queue incomingPacketLengths:vector ETV
attr interpolationmode none
attr recordingmode vector
attr source packetLength(packetPushStarted)
attr title "incoming packet lengths"
attr unit b
vector 441 WsnNetwork.node[15].wlan.queue incomingDataRate:vector ETV
attr interpolationmode linear
attr recordingmode vector
attr source throughput(packetPushStarted)
attr title "incoming datarate"
attr unit bps
vector 442 WsnNetwork.node[15].wlan.queue outgoingPacketLengths:vector ETV
attr interpolationmode none
attr recordingmode vector
attr source packetLength(packetPulled)
attr title "outgoing packet lengths"
attr unit b
vector 443 WsnNetwork.node[15].wlan.queue outgoingDataRate:vector ETV
attr interpolationmode linear
attr recordingmode vector
attr source throughput(packetPulled)
attr title "outgoing datarate"
attr unit bps
vector 444 WsnNetwork.node[15].wlan.queue droppedPacketLengthsQueueOverflow:vector ETV
attr interpolationmode none
attr recordingmode vector
attr source packetLength(packetDropReasonIsQueueOverflow(packetDropped))
attr title "dropped packet lengths: queue overflow"
attr unit b
vector 445 WsnNetwork.node[15].wlan.queue flowQueueingTime:vector ETV
attr interpolationmode none
attr recordingmode vector
attr source queueingTime(demuxFlow(packetPulled))
attr title "flow queueing times"
attr unit s
vector 446 WsnNetwork.node[15].wlan.queue flowIncomingDataRate:vector ETV
attr interpolationmode linear
attr recordingmode vector
attr source throughput(flowPacketLength(demuxFlow(packetPushStarted)))
attr title "flow specific incoming data rate"
attr unit bps
vector 447 WsnNetwork.node[15].wlan.queue flowOutgoingDataRate:vector ETV
attr interpolationmode linear
attr recordingmode vector
attr source throughput(flowPacketLength(demuxFlow(packetPulled)))
attr title "flow specific outgoing data rate"
attr unit bps
vector 448 WsnNetwork.node[15].wlan.mac packetDropNotAddressToUs:vector(packetBytes) ETV
attr interpolationmode none
attr recordingmode vector(packetBytes)
attr source packetDropReasonIsNotAddressedToUs(packetDropped)
attr title "packet drop: not addressed to us, packetBytes"
vector 449 WsnNetwork.node[15].wlan.mac packetDropIncorrectlyReceived:vector(packetBytes) ETV
attr interpolationmode none
attr recordingmode vector(packetBytes)
attr source packetDropReasonIsIncorrectlyReceived(packetDropped)
attr title "packet drop: incorrectly received, packetBytes"
vector 450 WsnNetwork.node[15].wlan.mac packetDropQueueOverflow:vector(packetBytes) ETV
attr interpolationmode none
attr recordingmode vector(packetBytes)
attr source packetDropReasonIsQueueOverflow(packetDropped)
attr title "packet drop: queue overflow, packetBytes"
vector 451 WsnNetwork.node[15].wlan.mac packetDropRetryLimitReached:vector(packetBytes) ETV
attr interpolationmode none
attr recordingmode vector(packetBytes)
attr source packetDropReasonIsRetryLimitReached(packetDropped)
attr title "packet drop: retry limit reached, packetBytes"
vector 452 WsnNetwork.node[15].wlan.mac packetDropBackoffLimitReached:vector(packetBytes) ETV
attr interpolationmode none
attr recordingmode vector(packetBytes)
attr source packetDropReasonIsCongestion(packetDropped)
attr title "packet drop: backoff limit reached, packetBytes"
vector 453 WsnNetwork.node[15].wlan.radio radioMode:vector ETV
attr interpolationmode sample-hold
attr recordingmode vector
attr source radioModeChanged
attr title "Radio mode"
vector 454 WsnNetwork.node[15].wlan.radio receptionState:vector ETV
attr interpolationmode sample-hold
attr recordingmode vector
attr source receptionStateChanged
attr title "Radio reception state"
vector 455 WsnNetwork.node[15].wlan.radio transmissionState:vector ETV
attr interpolationmode sample-hold
attr recordingmode vector
attr source transmissionStateChanged
attr title "Radio transmission state"
vector 456 WsnNetwork.node[15].wlan packetDropInterfaceDown:vector(packetBytes) ETV
attr interpolationmode none
attr recordingmode vector(packetBytes)
attr source packetDropReasonIsInterfaceDown(packetDropped)
attr title "packet drops: interface down, packetBytes"
vector 457 WsnNetwork.node[15].wlan packetDropNoCarrier:vector(packetBytes) ETV
attr interpolationmode none
attr recordingmode vector(packetBytes)
attr source packetDropReasonIsNoCarrier(packetDropped)
attr title "packet drops: no carrier, packetBytes"
vector 458 WsnNetwork.node[16].energyStorage powerConsumption:vector ETV
attr interpolationmode sample-hold
attr recordingmode vector
attr source powerConsumptionChanged
attr title "Power consumption"
attr unit W
vector 459 WsnNetwork.node[16].energyStorage powerGeneration:vector ETV
attr interpolationmode sample-hold
attr recordingmode vector
attr source powerGenerationChanged
attr title "Power generation"
attr unit W
vector 460 WsnNetwork.node[16].energyStorage residualEnergyCapacity:vector ETV
attr interpolationmode linear
attr recordingmode vector
attr source residualEnergyCapacityChanged
attr title "Residual energy capacity"
attr unit J
vector 461 WsnNetwork.node[16].app packetSent:vector ETV
attr recordingmode vector
vector 462 WsnNetwork.node[16].routing packetReceived:vector ETV
attr recordingmode vector
vector 463 WsnNetwork.node[16].routing endToEndDelay:vector ETV
attr recordingmode vector
vector 464 WsnNetwork.node[16].wlan.queue queueLength:vector ETV
attr autoWarmupFilter false
attr interpolationmode sample-hold
attr recordingmode vector
attr source "warmup(atomic(constant0(packetPushEnded) + count(packetPushStarted) - count(packetPulled) - count(packetRemoved) - count(packetDropped)))"
attr title "queue length"
attr unit pk
vector 465 WsnNetwork.node[16].wlan.queue queueBitLength:vector ETV
attr autoWarmupFilter false
attr interpolationmode sample-hold
attr recordingmode vector
attr source "warmup(atomic(constant0(packetPushEnded) + sum(packetLength(packetPushStarted)) - sum(packetLength(packetPulled)) - sum(packetLength(packetRemoved)) - sum(packetLength(packetDropped))))"
attr title "queue bit length"
attr unit b
vector 466 WsnNetwork.node[16].wlan.queue queueingTime:vector ETV
attr interpolationmode none
attr recordingmode vector
attr source queueingTime(packetPulled)
attr title "queueing times"
attr unit s
vector 467 WsnNetwork.node[16].wlan.queue incomingPacketLengths:vector ETV
attr interpolationmode none
attr recordingmode vector
attr source packetLength(packetPushStarted)
attr title "incoming packet lengths"
attr unit b
vector 468 WsnNetwork.node[16].wlan.queue incomingDataRate:vector ETV
attr interpolationmode linear
attr recordingmode vector
attr source throughput(packetPushStarted)
attr title "incoming datarate"
attr unit bps
vector 469 WsnNetwork.node[16].wlan.queue outgoingPacketLengths:vector ETV
attr interpolationmode none
attr recordingmode vector
attr source packetLength(packetPulled)
attr title "outgoing packet lengths"
attr unit b
vector 470 WsnNetwork.node[16].wlan.queue outgoingDataRate:vector ETV
attr interpolationmode linear
attr recordingmode vector
attr source throughput(packetPulled)
attr title "outgoing datarate"
attr unit bps
vector 471 WsnNetwork.node[16].wlan.queue droppedPacketLengthsQueueOverflow:vector ETV
attr interpolationmode none
attr recordingmode vector
attr source packetLength(packetDropReasonIsQueueOverflow(packetDropped))
attr title "dropped packet lengths: queue overflow"
attr unit b
vector 472 WsnNetwork.node[16].wlan.queue flowQueueingTime:vector ETV
attr interpolationmode none
attr recordingmode vector
attr source queueingTime(demuxFlow(packetPulled))
attr title "flow queueing times"
attr unit s
vector 473 WsnNetwork.node[16].wlan.queue flowIncomingDataRate:vector ETV
attr interpolationmode linear
attr recordingmode vector
attr source throughput(flowPacketLength(demuxFlow(packetPushStarted)))
attr title "flow specific incoming data rate"
attr unit bps
vector 474 WsnNetwork.node[16].wlan.queue flowOutgoingDataRate:vector ETV
attr interpolationmode linear
attr recordingmode vector
attr source throughput(flowPacketLength(demuxFlow(packetPulled)))
attr title "flow specific outgoing data rate"
attr unit bps
vector 475 WsnNetwork.node[16].wlan.mac packetDropNotAddressToUs:vector(packetBytes) ETV
attr interpolationmode none
attr recordingmode vector(packetBytes)
attr source packetDropReasonIsNotAddressedToUs(packetDropped)
attr title "packet drop: not addressed to us, packetBytes"
vector 476 WsnNetwork.node[16].wlan.mac packetDropIncorrectlyReceived:vector(packetBytes) ETV
attr interpolationmode none
attr recordingmode vector(packetBytes)
attr source packetDropReasonIsIncorrectlyReceived(packetDropped)
attr title "packet drop: incorrectly received, packetBytes"
vector 477 WsnNetwork.node[16].wlan.mac packetDropQueueOverflow:vector(packetBytes) ETV
attr interpolationmode none
attr recordingmode vector(packetBytes)
attr source packetDropReasonIsQueueOverflow(packetDropped)
attr title "packet drop: queue overflow, packetBytes"
vector 478 WsnNetwork.node[16].wlan.mac packetDropRetryLimitReached:vector(packetBytes) ETV
attr interpolationmode none
attr recordingmode vector(packetBytes)
attr source packetDropReasonIsRetryLimitReached(packetDropped)
attr title "packet drop: retry limit reached, packetBytes"
vector 479 WsnNetwork.node[16].wlan.mac packetDropBackoffLimitReached:vector(packetBytes) ETV
attr interpolationmode none
attr recordingmode vector(packetBytes)
attr source packetDropReasonIsCongestion(packetDropped)
attr title "packet drop: backoff limit reached, packetBytes"
vector 480 WsnNetwork.node[16].wlan.radio radioMode:vector ETV
attr interpolationmode sample-hold
attr recordingmode vector
attr source radioModeChanged
attr title "Radio mode"
vector 481 WsnNetwork.node[16].wlan.radio receptionState:vector ETV
attr interpolationmode sample-hold
attr recordingmode vector
attr source receptionStateChanged
attr title "Radio reception state"
vector 482 WsnNetwork.node[16].wlan.radio transmissionState:vector ETV
attr interpolationmode sample-hold
attr recordingmode vector
attr source transmissionStateChanged
attr title "Radio transmission state"
vector 483 WsnNetwork.node[16].wlan packetDropInterfaceDown:vector(packetBytes) ETV
attr interpolationmode none
attr recordingmode vector(packetBytes)
attr source packetDropReasonIsInterfaceDown(packetDropped)
attr title "packet drops: interface down, packetBytes"
vector 484 WsnNetwork.node[16].wlan packetDropNoCarrier:vector(packetBytes) ETV
attr interpolationmode none
attr recordingmode vector(packetBytes)
attr source packetDropReasonIsNoCarrier(packetDropped)
attr title "packet drops: no carrier, packetBytes"
vector 485 WsnNetwork.node[17].energyStorage powerConsumption:vector ETV
attr interpolationmode sample-hold
attr recordingmode vector
attr source powerConsumptionChanged
attr title "Power consumption"
attr unit W
vector 486 WsnNetwork.node[17].energyStorage powerGeneration:vector ETV
attr interpolationmode sample-hold
attr recordingmode vector
attr source powerGenerationChanged
attr title "Power generation"
attr unit W
vector 487 WsnNetwork.node[17].energyStorage residualEnergyCapacity:vector ETV
attr interpolationmode linear
attr recordingmode vector
attr source residualEnergyCapacityChanged
attr title "Residual energy capacity"
attr unit J
vector 488 WsnNetwork.node[17].app packetSent:vector ETV
attr recordingmode vector
vector 489 WsnNetwork.node[17].routing packetReceived:vector ETV
attr recordingmode vector
vector 490 WsnNetwork.node[17].routing endToEndDelay:vector ETV
attr recordingmode vector
vector 491 WsnNetwork.node[17].wlan.queue queueLength:vector ETV
attr autoWarmupFilter false
attr interpolationmode sample-hold
attr recordingmode vector
attr source "warmup(atomic(constant0(packetPushEnded) + count(packetPushStarted) - count(packetPulled) - count(packetRemoved) - count(packetDropped)))"
attr title "queue length"
attr unit pk
vector 492 WsnNetwork.node[17].wlan.queue queueBitLength:vector ETV
attr autoWarmupFilter false
attr interpolationmode sample-hold
attr recordingmode vector
attr source "warmup(atomic(constant0(packetPushEnded) + sum(packetLength(packetPushStarted)) - sum(packetLength(packetPulled)) - sum(packetLength(packetRemoved)) - sum(packetLength(packetDropped))))"
attr title "queue bit length"
attr unit b
vector 493 WsnNetwork.node[17].wlan.queue queueingTime:vector ETV
attr interpolationmode none
attr recordingmode vector
attr source queueingTime(packetPulled)
attr title "queueing times"
attr unit s
vector 494 WsnNetwork.node[17].wlan.queue incomingPacketLengths:vector ETV
attr interpolationmode none
attr recordingmode vector
attr source packetLength(packetPushStarted)
attr title "incoming packet lengths"
attr unit b
vector 495 WsnNetwork.node[17].wlan.queue incomingDataRate:vector ETV
attr interpolationmode linear
attr recordingmode vector
attr source throughput(packetPushStarted)
attr title "incoming datarate"
attr unit bps
vector 496 WsnNetwork.node[17].wlan.queue outgoingPacketLengths:vector ETV
attr interpolationmode none
attr recordingmode vector
attr source packetLength(packetPulled)
attr title "outgoing packet lengths"
attr unit b
vector 497 WsnNetwork.node[17].wlan.queue outgoingDataRate:vector ETV
attr interpolationmode linear
attr recordingmode vector
attr source throughput(packetPulled)
attr title "outgoing datarate"
attr unit bps
vector 498 WsnNetwork.node[17].wlan.queue droppedPacketLengthsQueueOverflow:vector ETV
attr interpolationmode none
attr recordingmode vector
attr source packetLength(packetDropReasonIsQueueOverflow(packetDropped))
attr title "dropped packet lengths: queue overflow"
attr unit b
vector 499 WsnNetwork.node[17].wlan.queue flowQueueingTime:vector ETV
attr interpolationmode none
attr recordingmode vector
attr source queueingTime(demuxFlow(packetPulled))
attr title "flow queueing times"
attr unit s
vector 500 WsnNetwork.node[17].wlan.queue flowIncomingDataRate:vector ETV
attr interpolationmode linear
attr recordingmode vector
attr source throughput(flowPacketLength(demuxFlow(packetPushStarted)))
attr title "flow specific incoming data rate"
attr unit bps
vector 501 WsnNetwork.node[17].wlan.queue flowOutgoingDataRate:vector ETV
attr interpolationmode linear
attr recordingmode vector
attr source throughput(flowPacketLength(demuxFlow(packetPulled)))
attr title "flow specific outgoing data rate"
attr unit bps
vector 502 WsnNetwork.node[17].wlan.mac packetDropNotAddressToUs:vector(packetBytes) ETV
attr interpolationmode none
attr recordingmode vector(packetBytes)
attr source packetDropReasonIsNotAddressedToUs(packetDropped)
attr title "packet drop: not addressed to us, packetBytes"
vector 503 WsnNetwork.node[17].wlan.mac packetDropIncorrectlyReceived:vector(packetBytes) ETV
attr interpolationmode none
attr recordingmode vector(packetBytes)
attr source packetDropReasonIsIncorrectlyReceived(packetDropped)
attr title "packet drop: incorrectly received, packetBytes"
vector 504 WsnNetwork.node[17].wlan.mac packetDropQueueOverflow:vector(packetBytes) ETV
attr interpolationmode none
attr recordingmode vector(packetBytes)
attr source packetDropReasonIsQueueOverflow(packetDropped)
attr title "packet drop: queue overflow, packetBytes"
vector 505 WsnNetwork.node[17].wlan.mac packetDropRetryLimitReached:vector(packetBytes) ETV
attr interpolationmode none
attr recordingmode vector(packetBytes)
attr source packetDropReasonIsRetryLimitReached(packetDropped)
attr title "packet drop: retry limit reached, packetBytes"
vector 506 WsnNetwork.node[17].wlan.mac packetDropBackoffLimitReached:vector(packetBytes) ETV
attr interpolationmode none
attr recordingmode vector(packetBytes)
attr source packetDropReasonIsCongestion(packetDropped)
attr title "packet drop: backoff limit reached, packetBytes"
vector 507 WsnNetwork.node[17].wlan.radio radioMode:vector ETV
attr interpolationmode sample-hold
attr recordingmode vector
attr source radioModeChanged
attr title "Radio mode"
vector 508 WsnNetwork.node[17].wlan.radio receptionState:vector ETV
attr interpolationmode sample-hold
attr recordingmode vector
attr source receptionStateChanged
attr title "Radio reception state"
vector 509 WsnNetwork.node[17].wlan.radio transmissionState:vector ETV
attr interpolationmode sample-hold
attr recordingmode vector
attr source transmissionStateChanged
attr title "Radio transmission state"
vector 510 WsnNetwork.node[17].wlan packetDropInterfaceDown:vector(packetBytes) ETV
attr interpolationmode none
attr recordingmode vector(packetBytes)
attr source packetDropReasonIsInterfaceDown(packetDropped)
attr title "packet drops: interface down, packetBytes"
vector 511 WsnNetwork.node[17].wlan packetDropNoCarrier:vector(packetBytes) ETV
attr interpolationmode none
attr recordingmode vector(packetBytes)
attr source packetDropReasonIsNoCarrier(packetDropped)
attr title "packet drops: no carrier, packetBytes"
5	0	60	0
5	0	60	0
5	0	60	0
5	0	60	0
5	0	60	0
6	0	60	0
6	0	60	0
6	0	60	0
6	0	60	0
6	0	60	0
32	0	60	0
32	0	60	0
32	0	60	0
32	0	60	0
32	0	60	0
33	0	60	0
33	0	60	0
33	0	60	0
33	0	60	0
33	0	60	0
59	0	60	0
59	0	60	0
59	0	60	0
59	0	60	0
59	0	60	0
60	0	60	0
60	0	60	0
60	0	60	0
60	0	60	0
60	0	60	0
86	0	60	0
86	0	60	0
86	0	60	0
86	0	60	0
86	0	60	0
87	0	60	0
87	0	60	0
87	0	60	0
87	0	60	0
87	0	60	0
113	0	60	0
113	0	60	0
113	0	60	0
113	0	60	0
113	0	60	0
114	0	60	0
114	0	60	0
114	0	60	0
114	0	60	0
114	0	60	0
140	0	60	0
140	0	60	0
140	0	60	0
140	0	60	0
140	0	60	0
141	0	60	0
141	0	60	0
141	0	60	0
141	0	60	0
141	0	60	0
167	0	60	0
167	0	60	0
167	0	60	0
167	0	60	0
167	0	60	0
168	0	60	0
168	0	60	0
168	0	60	0
168	0	60	0
168	0	60	0
194	0	60	0
194	0	60	0
194	0	60	0
194	0	60	0
194	0	60	0
195	0	60	0
195	0	60	0
195	0	60	0
195	0	60	0
195	0	60	0
221	0	60	0
221	0	60	0
221	0	60	0
221	0	60	0
221	0	60	0
222	0	60	0
222	0	60	0
222	0	60	0
222	0	60	0
222	0	60	0
248	0	60	0
248	0	60	0
248	0	60	0
248	0	60	0
248	0	60	0
249	0	60	0
249	0	60	0
249	0	60	0
249	0	60	0
249	0	60	0
275	0	60	0
275	0	60	0
275	0	60	0
275	0	60	0
275	0	60	0
276	0	60	0
276	0	60	0
276	0	60	0
276	0	60	0
276	0	60	0
302	0	60	0
302	0	60	0
302	0	60	0
302	0	60	0
302	0	60	0
303	0	60	0
303	0	60	0
303	0	60	0
303	0	60	0
303	0	60	0
329	0	60	0
329	0	60	0
329	0	60	0
329	0	60	0
329	0	60	0
330	0	60	0
330	0	60	0
330	0	60	0
330	0	60	0
330	0	60	0
356	0	60	0
356	0	60	0
356	0	60	0
356	0	60	0
356	0	60	0
357	0	60	0
357	0	60	0
357	0	60	0
357	0	60	0
357	0	60	0
383	0	60	0
383	0	60	0
383	0	60	0
383	0	60	0
383	0	60	0
384	0	60	0
384	0	60	0
384	0	60	0
384	0	60	0
384	0	60	0
410	0	60	0
410	0	60	0
410	0	60	0
410	0	60	0
410	0	60	0
411	0	60	0
411	0	60	0
411	0	60	0
411	0	60	0
411	0	60	0
437	0	60	0
437	0	60	0
437	0	60	0
437	0	60	0
437	0	60	0
438	0	60	0
438	0	60	0
438	0	60	0
438	0	60	0
438	0	60	0
464	0	60	0
464	0	60	0
464	0	60	0
464	0	60	0
464	0	60	0
465	0	60	0
465	0	60	0
465	0	60	0
465	0	60	0
465	0	60	0
491	0	60	0
491	0	60	0
491	0	60	0
491	0	60	0
491	0	60	0
492	0	60	0
492	0	60	0
492	0	60	0
492	0	60	0
492	0	60	0

