version 3
run Group5-5-20251130-13:07:09-226936
attr configname Group5
attr datetime 20251130-13:07:09
attr datetimef 20251130-130709
attr experiment Group5
attr inifile omnetpp.ini
attr iterationvars "$0=\"Leach\", $1=18"
attr iterationvarsd Leach/18
attr iterationvarsf Leach,18-
attr measurement "$0=\"Leach\", $1=18"
attr network WsnNetwork
attr processid 226936
attr repetition 2
attr replication #2
attr resultdir results
attr runnumber 5
attr seedset 22360
config image-path ../../inet4.5/images
config description "Clustered(2 clusters,18); LEACH vs PEGASIS"
config seed-set 22360
config network WsnNetwork
config **.numNodes 18
config **.topologyType "\"clustered\""
config **.radio.txRange "\"35m\""
config **.node[0..8].mobility.initialX "uniform(70m, 130m)"
config **.node[0..8].mobility.initialY "uniform(70m, 130m)"
config **.node[9..17].mobility.initialX "uniform(270m, 330m)"
config **.node[9..17].mobility.initialY "uniform(70m, 130m)"
config **.baseStation.mobility.initialX 200m
config **.baseStation.mobility.initialY 300m
config *.activeProtocol "\"Leach\""
config **.app.traffic "\"constant\""
config **.app.packetInterval 0.9s
config **.app.payloadBytes 64B
config **.node[*].initialJoules 18J
config **.node[*].radioTx_mA 17.4
config **.node[*].radioRx_mA 19.7
config **.node[*].sleep_mA 0.06
config **.node[*].supplyVoltage 3.0V
config **.wlan.interfaceTableModule "\"^.interfaceTable\""
config **.wlan.radio.antenna.mobilityModule "\"^.^.^.mobility\""
config **.wlan.radio.energyConsumer.energySourceModule "\"^.^.energyStorage\""
config **.wlan.radio.energyConsumer.energySourceModule "\"^.^.energyStorage\""
config **.wlan.radio.typename Ieee802154NarrowbandScalarRadio
config **.wlan.radio.antenna.typename IsotropicAntenna
config **.wlan.radio.transmitter.power 1mW
config **.wlan.radio.receiver.sensitivity -85dBm
config **.wlan.radio.receiver.energyConsumer.typename StateBasedEpEnergyConsumer
config **.wlan.radio.receiver.energyConsumer.offPowerConsumption 0mW
config **.wlan.radio.receiver.energyConsumer.sleepPowerConsumption 0mW
config **.wlan.radio.receiver.energyConsumer.receiverIdlePowerConsumption 0mW
config **.wlan.radio.receiver.energyConsumer.receiverBusyPowerConsumption 0mW
config **.wlan.radio.receiver.energyConsumer.receiverReceivingPowerConsumption 0mW
config output-scalar-file results/group5-Group5-5.sca
config output-vector-file results/group5-Group5-5.vec
config **.scalar-recording true
config **.vector-recording true
config **.stat.pdr true
config **.stat.delay true
config **.stat.residualEnergy true
config **.groupId 5
config **.groupKey "\"22360-5\""
config sim-time-limit 1800s
config repeat 3
config warmup-period 60s
config rng-class cMersenneTwister

par WsnNetwork.radioMedium.propagation typename "\"inet.physicallayer.wireless.common.propagation.ConstantSpeedPropagation\""
par WsnNetwork.radioMedium.propagation propagationSpeed 2.99792e+08mps
attr unit mps
par WsnNetwork.radioMedium.propagation ignoreMovementDuringTransmission true
par WsnNetwork.radioMedium.propagation ignoreMovementDuringPropagation true
par WsnNetwork.radioMedium.propagation ignoreMovementDuringReception true
scalar WsnNetwork.radioMedium.propagation "Arrival computation count" 22194
par WsnNetwork.radioMedium.analogModel typename "\"inet.physicallayer.wireless.common.analogmodel.packetlevel.ScalarAnalogModel\""
par WsnNetwork.radioMedium.analogModel ignorePartialInterference false
par WsnNetwork.radioMedium.backgroundNoise typename "\"inet.physicallayer.wireless.common.backgroundnoise.IsotropicScalarBackgroundNoise\""
par WsnNetwork.radioMedium.backgroundNoise power -96.616dBm
attr unit dBm
par WsnNetwork.radioMedium.backgroundNoise bandwidth "nan Hz"
attr unit Hz
par WsnNetwork.radioMedium.pathLoss typename "\"inet.physicallayer.wireless.common.pathloss.BreakpointPathLoss\""
par WsnNetwork.radioMedium.pathLoss l01 40.2
par WsnNetwork.radioMedium.pathLoss l02 58.5
par WsnNetwork.radioMedium.pathLoss alpha1 2
par WsnNetwork.radioMedium.pathLoss alpha2 3.3
par WsnNetwork.radioMedium.pathLoss breakpointDistance 8m
attr unit m
par WsnNetwork.radioMedium.mediumLimitCache typename "\"inet.physicallayer.wireless.common.medium.MediumLimitCache\""
par WsnNetwork.radioMedium.mediumLimitCache centerFrequency 2.45e+09Hz
attr unit Hz
par WsnNetwork.radioMedium.mediumLimitCache maxSpeed "nan mps"
attr unit mps
par WsnNetwork.radioMedium.mediumLimitCache maxTransmissionPower "nan W"
attr unit W
par WsnNetwork.radioMedium.mediumLimitCache minInterferencePower "nan dBm"
attr unit dBm
par WsnNetwork.radioMedium.mediumLimitCache minReceptionPower "nan dBm"
attr unit dBm
par WsnNetwork.radioMedium.mediumLimitCache maxAntennaGain 0dB
attr unit dB
par WsnNetwork.radioMedium.mediumLimitCache minInterferenceTime 1e-12s
attr unit s
par WsnNetwork.radioMedium.mediumLimitCache maxTransmissionDuration 0.01s
attr unit s
par WsnNetwork.radioMedium.mediumLimitCache maxCommunicationRange "nan m"
attr unit m
par WsnNetwork.radioMedium.mediumLimitCache maxInterferenceRange "nan m"
attr unit m
par WsnNetwork.radioMedium.communicationCache typename "\"inet.physicallayer.wireless.common.communicationcache.VectorCommunicationCache\""
par WsnNetwork.radioMedium typename "\"inet.physicallayer.wireless.ieee802154.packetlevel.Ieee802154NarrowbandScalarRadioMedium\""
par WsnNetwork.radioMedium physicalEnvironmentModule "\"physicalEnvironment\""
par WsnNetwork.radioMedium signalAnalogRepresentation "\"scalar\""
attr enum unitDisk,scalar,dimensional
par WsnNetwork.radioMedium rangeFilter "\"\""
par WsnNetwork.radioMedium radioModeFilter false
par WsnNetwork.radioMedium listeningFilter false
par WsnNetwork.radioMedium macAddressFilter false
par WsnNetwork.radioMedium recordTransmissionLog false
par WsnNetwork.radioMedium recordReceptionLog false
scalar WsnNetwork.radioMedium "transmission count" 1233
scalar WsnNetwork.radioMedium "signal send count" 22194
scalar WsnNetwork.radioMedium "reception computation count" 22176
scalar WsnNetwork.radioMedium "interference computation count" 52546
scalar WsnNetwork.radioMedium "reception decision computation count" 10108
scalar WsnNetwork.radioMedium "listening decision computation count" 22032
scalar WsnNetwork.radioMedium "reception cache hit" 84.306176753666
attr unit %
scalar WsnNetwork.radioMedium "interference cache hit" 66.666666666667
attr unit %
scalar WsnNetwork.radioMedium "noise cache hit" 0
attr unit %
scalar WsnNetwork.radioMedium "snir cache hit" 50
attr unit %
scalar WsnNetwork.radioMedium "reception decision cache hit" 50
attr unit %
scalar WsnNetwork.radioMedium "reception result cache hit" 0
attr unit %
par WsnNetwork.visualizer.canvasVisualizer.sceneVisualizer typename "\"inet.visualizer.canvas.scene.SceneCanvasVisualizer\""
par WsnNetwork.visualizer.canvasVisualizer.sceneVisualizer visualizationTargetModule "\"^.^.^\""
par WsnNetwork.visualizer.canvasVisualizer.sceneVisualizer visualizationSubjectModule "\"^.^.^\""
par WsnNetwork.visualizer.canvasVisualizer.sceneVisualizer tags "\"\""
par WsnNetwork.visualizer.canvasVisualizer.sceneVisualizer physicalEnvironmentModule "\"physicalEnvironment\""
par WsnNetwork.visualizer.canvasVisualizer.sceneVisualizer networkNodeVisualizerModule "\"^.networkNodeVisualizer\""
par WsnNetwork.visualizer.canvasVisualizer.sceneVisualizer axisLength "nan m"
attr mutable ""
attr unit m
par WsnNetwork.visualizer.canvasVisualizer.sceneVisualizer animationSpeed 0
par WsnNetwork.visualizer.canvasVisualizer.sceneVisualizer sceneMinX "nan m"
attr unit m
par WsnNetwork.visualizer.canvasVisualizer.sceneVisualizer sceneMinY "nan m"
attr unit m
par WsnNetwork.visualizer.canvasVisualizer.sceneVisualizer sceneMinZ "nan m"
attr unit m
par WsnNetwork.visualizer.canvasVisualizer.sceneVisualizer sceneMaxX "nan m"
attr unit m
par WsnNetwork.visualizer.canvasVisualizer.sceneVisualizer sceneMaxY "nan m"
attr unit m
par WsnNetwork.visualizer.canvasVisualizer.sceneVisualizer sceneMaxZ "nan m"
attr unit m
par WsnNetwork.visualizer.canvasVisualizer.sceneVisualizer zIndex 0
par WsnNetwork.visualizer.canvasVisualizer.sceneVisualizer viewAngle "\"x right y down z out\""
attr mutable ""
par WsnNetwork.visualizer.canvasVisualizer.sceneVisualizer viewScale "\"1 1\""
attr mutable ""
par WsnNetwork.visualizer.canvasVisualizer.sceneVisualizer viewTranslation "\"0 0\""
attr mutable ""
par WsnNetwork.visualizer.canvasVisualizer.sceneVisualizer descriptionFigure "\"\""
par WsnNetwork.visualizer.canvasVisualizer.physicalEnvironmentVisualizer typename "\"inet.visualizer.canvas.environment.PhysicalEnvironmentCanvasVisualizer\""
par WsnNetwork.visualizer.canvasVisualizer.physicalEnvironmentVisualizer visualizationTargetModule "\"^.^.^\""
par WsnNetwork.visualizer.canvasVisualizer.physicalEnvironmentVisualizer visualizationSubjectModule "\"^.^.^\""
par WsnNetwork.visualizer.canvasVisualizer.physicalEnvironmentVisualizer tags "\"\""
par WsnNetwork.visualizer.canvasVisualizer.physicalEnvironmentVisualizer physicalEnvironmentModule "\"physicalEnvironment\""
par WsnNetwork.visualizer.canvasVisualizer.physicalEnvironmentVisualizer displayObjects true
par WsnNetwork.visualizer.canvasVisualizer.physicalEnvironmentVisualizer zIndex 0
par WsnNetwork.visualizer.canvasVisualizer.networkNodeVisualizer typename "\"inet.visualizer.canvas.scene.NetworkNodeCanvasVisualizer\""
par WsnNetwork.visualizer.canvasVisualizer.networkNodeVisualizer visualizationTargetModule "\"^.^.^\""
par WsnNetwork.visualizer.canvasVisualizer.networkNodeVisualizer visualizationSubjectModule "\"^.^.^\""
par WsnNetwork.visualizer.canvasVisualizer.networkNodeVisualizer tags "\"\""
par WsnNetwork.visualizer.canvasVisualizer.networkNodeVisualizer nodeFilter "\"*\""
attr mutable ""
par WsnNetwork.visualizer.canvasVisualizer.networkNodeVisualizer annotationSpacing 4
par WsnNetwork.visualizer.canvasVisualizer.networkNodeVisualizer placementPenalty 10
par WsnNetwork.visualizer.canvasVisualizer.networkNodeVisualizer zIndex 0
par WsnNetwork.visualizer.canvasVisualizer.networkConnectionVisualizer typename "\"inet.visualizer.canvas.scene.NetworkConnectionCanvasVisualizer\""
par WsnNetwork.visualizer.canvasVisualizer.networkConnectionVisualizer visualizationTargetModule "\"^.^.^\""
par WsnNetwork.visualizer.canvasVisualizer.networkConnectionVisualizer visualizationSubjectModule "\"^.^.^\""
par WsnNetwork.visualizer.canvasVisualizer.networkConnectionVisualizer tags "\"\""
par WsnNetwork.visualizer.canvasVisualizer.networkConnectionVisualizer displayNetworkConnections true
par WsnNetwork.visualizer.canvasVisualizer.networkConnectionVisualizer nodeFilter "\"\""
attr mutable ""
par WsnNetwork.visualizer.canvasVisualizer.networkConnectionVisualizer lineColor "\"black\""
par WsnNetwork.visualizer.canvasVisualizer.networkConnectionVisualizer lineStyle "\"solid\""
par WsnNetwork.visualizer.canvasVisualizer.networkConnectionVisualizer lineWidth 1
par WsnNetwork.visualizer.canvasVisualizer.networkConnectionVisualizer zIndex 0
par WsnNetwork.visualizer.canvasVisualizer.mobilityVisualizer typename "\"inet.visualizer.canvas.mobility.MobilityCanvasVisualizer\""
par WsnNetwork.visualizer.canvasVisualizer.mobilityVisualizer visualizationTargetModule "\"^.^.^\""
par WsnNetwork.visualizer.canvasVisualizer.mobilityVisualizer visualizationSubjectModule "\"^.^.^\""
par WsnNetwork.visualizer.canvasVisualizer.mobilityVisualizer tags "\"\""
par WsnNetwork.visualizer.canvasVisualizer.mobilityVisualizer networkNodeVisualizerModule "\"^.networkNodeVisualizer\""
par WsnNetwork.visualizer.canvasVisualizer.mobilityVisualizer displayMobility true
par WsnNetwork.visualizer.canvasVisualizer.mobilityVisualizer animationSpeed 0
par WsnNetwork.visualizer.canvasVisualizer.mobilityVisualizer moduleFilter "\"**.mobility\""
attr mutable ""
par WsnNetwork.visualizer.canvasVisualizer.mobilityVisualizer displayPositions false
par WsnNetwork.visualizer.canvasVisualizer.mobilityVisualizer positionCircleRadius 4
par WsnNetwork.visualizer.canvasVisualizer.mobilityVisualizer positionCircleLineWidth 1
par WsnNetwork.visualizer.canvasVisualizer.mobilityVisualizer positionCircleLineColor "\"dark\""
par WsnNetwork.visualizer.canvasVisualizer.mobilityVisualizer positionCircleFillColor "\"dark\""
par WsnNetwork.visualizer.canvasVisualizer.mobilityVisualizer displayOrientations false
par WsnNetwork.visualizer.canvasVisualizer.mobilityVisualizer orientationPieRadius 32
par WsnNetwork.visualizer.canvasVisualizer.mobilityVisualizer orientationPieSize 0.2
par WsnNetwork.visualizer.canvasVisualizer.mobilityVisualizer orientationPieOpacity 0.25
par WsnNetwork.visualizer.canvasVisualizer.mobilityVisualizer orientationLineColor "\"black\""
par WsnNetwork.visualizer.canvasVisualizer.mobilityVisualizer orientationLineStyle "\"solid\""
par WsnNetwork.visualizer.canvasVisualizer.mobilityVisualizer orientationLineWidth 1
par WsnNetwork.visualizer.canvasVisualizer.mobilityVisualizer orientationFillColor "\"blue\""
par WsnNetwork.visualizer.canvasVisualizer.mobilityVisualizer displayVelocities false
par WsnNetwork.visualizer.canvasVisualizer.mobilityVisualizer velocityArrowScale 1
par WsnNetwork.visualizer.canvasVisualizer.mobilityVisualizer velocityLineColor "\"black\""
par WsnNetwork.visualizer.canvasVisualizer.mobilityVisualizer velocityLineStyle "\"solid\""
par WsnNetwork.visualizer.canvasVisualizer.mobilityVisualizer velocityLineWidth 1
par WsnNetwork.visualizer.canvasVisualizer.mobilityVisualizer displayMovementTrails false
par WsnNetwork.visualizer.canvasVisualizer.mobilityVisualizer movementTrailLineColor "\"dark\""
par WsnNetwork.visualizer.canvasVisualizer.mobilityVisualizer movementTrailLineStyle "\"solid\""
par WsnNetwork.visualizer.canvasVisualizer.mobilityVisualizer movementTrailLineWidth 1
par WsnNetwork.visualizer.canvasVisualizer.mobilityVisualizer trailLength 100
par WsnNetwork.visualizer.canvasVisualizer.mobilityVisualizer zIndex 0
par WsnNetwork.visualizer.canvasVisualizer.statisticVisualizer typename "\"inet.visualizer.canvas.common.StatisticCanvasVisualizer\""
par WsnNetwork.visualizer.canvasVisualizer.statisticVisualizer visualizationTargetModule "\"^.^.^\""
par WsnNetwork.visualizer.canvasVisualizer.statisticVisualizer visualizationSubjectModule "\"^.^.^\""
par WsnNetwork.visualizer.canvasVisualizer.statisticVisualizer tags "\"\""
par WsnNetwork.visualizer.canvasVisualizer.statisticVisualizer networkNodeVisualizerModule "\"^.networkNodeVisualizer\""
par WsnNetwork.visualizer.canvasVisualizer.statisticVisualizer displayStatistics true
par WsnNetwork.visualizer.canvasVisualizer.statisticVisualizer signalName "\"\""
par WsnNetwork.visualizer.canvasVisualizer.statisticVisualizer statisticName "\"\""
par WsnNetwork.visualizer.canvasVisualizer.statisticVisualizer statisticUnit "\"\""
par WsnNetwork.visualizer.canvasVisualizer.statisticVisualizer statisticExpression "\"\""
par WsnNetwork.visualizer.canvasVisualizer.statisticVisualizer sourceFilter "\"**\""
attr mutable ""
par WsnNetwork.visualizer.canvasVisualizer.statisticVisualizer format "\"%n: %v %u\""
attr mutable ""
par WsnNetwork.visualizer.canvasVisualizer.statisticVisualizer unit "\"\""
par WsnNetwork.visualizer.canvasVisualizer.statisticVisualizer font "\"<default>\""
par WsnNetwork.visualizer.canvasVisualizer.statisticVisualizer textColor "\"black\""
par WsnNetwork.visualizer.canvasVisualizer.statisticVisualizer backgroundColor "\"white\""
par WsnNetwork.visualizer.canvasVisualizer.statisticVisualizer opacity 1
par WsnNetwork.visualizer.canvasVisualizer.statisticVisualizer placementHint "\"top\""
par WsnNetwork.visualizer.canvasVisualizer.statisticVisualizer placementPriority 0
par WsnNetwork.visualizer.canvasVisualizer.statisticVisualizer zIndex 10
par WsnNetwork.visualizer.canvasVisualizer.statisticVisualizer propertyName "\"\""
par WsnNetwork.visualizer.canvasVisualizer.statisticVisualizer propertyIndex "\"\""
par WsnNetwork.visualizer.canvasVisualizer.infoVisualizer typename "\"inet.visualizer.canvas.common.InfoCanvasVisualizer\""
par WsnNetwork.visualizer.canvasVisualizer.infoVisualizer visualizationTargetModule "\"^.^.^\""
par WsnNetwork.visualizer.canvasVisualizer.infoVisualizer visualizationSubjectModule "\"^.^.^\""
par WsnNetwork.visualizer.canvasVisualizer.infoVisualizer tags "\"\""
par WsnNetwork.visualizer.canvasVisualizer.infoVisualizer networkNodeVisualizerModule "\"^.networkNodeVisualizer\""
par WsnNetwork.visualizer.canvasVisualizer.infoVisualizer displayInfos true
par WsnNetwork.visualizer.canvasVisualizer.infoVisualizer modules "\"\""
attr mutable ""
par WsnNetwork.visualizer.canvasVisualizer.infoVisualizer format "\"%t\""
attr mutable ""
par WsnNetwork.visualizer.canvasVisualizer.infoVisualizer font "\"<default>\""
par WsnNetwork.visualizer.canvasVisualizer.infoVisualizer textColor "\"black\""
par WsnNetwork.visualizer.canvasVisualizer.infoVisualizer backgroundColor "\"white\""
par WsnNetwork.visualizer.canvasVisualizer.infoVisualizer opacity 1
par WsnNetwork.visualizer.canvasVisualizer.infoVisualizer placementHint "\"top\""
par WsnNetwork.visualizer.canvasVisualizer.infoVisualizer placementPriority 0
par WsnNetwork.visualizer.canvasVisualizer.infoVisualizer zIndex 10
par WsnNetwork.visualizer.canvasVisualizer.energyStorageVisualizer typename "\"inet.visualizer.canvas.power.EnergyStorageCanvasVisualizer\""
par WsnNetwork.visualizer.canvasVisualizer.energyStorageVisualizer visualizationTargetModule "\"^.^.^\""
par WsnNetwork.visualizer.canvasVisualizer.energyStorageVisualizer visualizationSubjectModule "\"^.^.^\""
par WsnNetwork.visualizer.canvasVisualizer.energyStorageVisualizer tags "\"\""
par WsnNetwork.visualizer.canvasVisualizer.energyStorageVisualizer networkNodeVisualizerModule "\"^.networkNodeVisualizer\""
par WsnNetwork.visualizer.canvasVisualizer.energyStorageVisualizer displayEnergyStorages false
par WsnNetwork.visualizer.canvasVisualizer.energyStorageVisualizer energyStorageFilter "\"**\""
par WsnNetwork.visualizer.canvasVisualizer.energyStorageVisualizer color "\"green\""
par WsnNetwork.visualizer.canvasVisualizer.energyStorageVisualizer width 8
par WsnNetwork.visualizer.canvasVisualizer.energyStorageVisualizer height 24
par WsnNetwork.visualizer.canvasVisualizer.energyStorageVisualizer spacing 2
par WsnNetwork.visualizer.canvasVisualizer.energyStorageVisualizer placementHint "\"right\""
par WsnNetwork.visualizer.canvasVisualizer.energyStorageVisualizer placementPriority 0
par WsnNetwork.visualizer.canvasVisualizer.energyStorageVisualizer zIndex 10
par WsnNetwork.visualizer.canvasVisualizer.mediumVisualizer typename "\"inet.visualizer.canvas.physicallayer.MediumCanvasVisualizer\""
par WsnNetwork.visualizer.canvasVisualizer.mediumVisualizer visualizationTargetModule "\"^.^.^\""
par WsnNetwork.visualizer.canvasVisualizer.mediumVisualizer visualizationSubjectModule "\"^.^.^\""
par WsnNetwork.visualizer.canvasVisualizer.mediumVisualizer tags "\"\""
par WsnNetwork.visualizer.canvasVisualizer.mediumVisualizer mediumModule "\"radioMedium\""
par WsnNetwork.visualizer.canvasVisualizer.mediumVisualizer networkNodeVisualizerModule "\"^.networkNodeVisualizer\""
par WsnNetwork.visualizer.canvasVisualizer.mediumVisualizer nodeFilter "\"*\""
attr mutable ""
par WsnNetwork.visualizer.canvasVisualizer.mediumVisualizer interfaceFilter "\"*\""
attr mutable ""
par WsnNetwork.visualizer.canvasVisualizer.mediumVisualizer packetFilter "(omnetpp::cValueHolder)holder: \"*\""
attr mutable ""
par WsnNetwork.visualizer.canvasVisualizer.mediumVisualizer displaySignals false
par WsnNetwork.visualizer.canvasVisualizer.mediumVisualizer signalColor "\"dark\""
par WsnNetwork.visualizer.canvasVisualizer.mediumVisualizer signalPropagationAnimationSpeed "nan "
attr mutable ""
par WsnNetwork.visualizer.canvasVisualizer.mediumVisualizer signalPropagationAnimationTime 1s
attr unit s
par WsnNetwork.visualizer.canvasVisualizer.mediumVisualizer signalPropagationAdditionalTime 0s
attr unit s
par WsnNetwork.visualizer.canvasVisualizer.mediumVisualizer signalTransmissionAnimationSpeed "nan "
attr mutable ""
par WsnNetwork.visualizer.canvasVisualizer.mediumVisualizer signalTransmissionAnimationTime 1s
attr unit s
par WsnNetwork.visualizer.canvasVisualizer.mediumVisualizer signalAnimationSpeedChangeTimeMode "\"realTime\""
attr enum realTime,animationTime,simulationTime
par WsnNetwork.visualizer.canvasVisualizer.mediumVisualizer signalAnimationSpeedChangeTime 1s
attr unit s
par WsnNetwork.visualizer.canvasVisualizer.mediumVisualizer displaySignalDepartures false
par WsnNetwork.visualizer.canvasVisualizer.mediumVisualizer signalDepartureImage "\"misc/signal_departure.png\""
par WsnNetwork.visualizer.canvasVisualizer.mediumVisualizer signalDeparturePlacementHint "\"topCenter\""
par WsnNetwork.visualizer.canvasVisualizer.mediumVisualizer signalDeparturePlacementPriority 1
par WsnNetwork.visualizer.canvasVisualizer.mediumVisualizer displaySignalArrivals false
par WsnNetwork.visualizer.canvasVisualizer.mediumVisualizer signalArrivalImage "\"misc/signal_arrival.png\""
par WsnNetwork.visualizer.canvasVisualizer.mediumVisualizer signalArrivalPlacementHint "\"topCenter\""
par WsnNetwork.visualizer.canvasVisualizer.mediumVisualizer signalArrivalPlacementPriority -1
par WsnNetwork.visualizer.canvasVisualizer.mediumVisualizer displayCommunicationRanges false
par WsnNetwork.visualizer.canvasVisualizer.mediumVisualizer communicationRangeLineColor "\"blue\""
par WsnNetwork.visualizer.canvasVisualizer.mediumVisualizer communicationRangeLineStyle "\"solid\""
par WsnNetwork.visualizer.canvasVisualizer.mediumVisualizer communicationRangeLineWidth 1
par WsnNetwork.visualizer.canvasVisualizer.mediumVisualizer displayInterferenceRanges false
par WsnNetwork.visualizer.canvasVisualizer.mediumVisualizer interferenceRangeLineColor "\"gray\""
par WsnNetwork.visualizer.canvasVisualizer.mediumVisualizer interferenceRangeLineStyle "\"solid\""
par WsnNetwork.visualizer.canvasVisualizer.mediumVisualizer interferenceRangeLineWidth 1
par WsnNetwork.visualizer.canvasVisualizer.mediumVisualizer autoPowerAxis true
par WsnNetwork.visualizer.canvasVisualizer.mediumVisualizer signalMinPower "inf dBmW"
attr unit dBmW
par WsnNetwork.visualizer.canvasVisualizer.mediumVisualizer signalMaxPower 0dBmW
attr unit dBmW
par WsnNetwork.visualizer.canvasVisualizer.mediumVisualizer signalMinPowerDensity "inf dBmWpMHz"
attr unit dBmWpMHz
par WsnNetwork.visualizer.canvasVisualizer.mediumVisualizer signalMaxPowerDensity "-inf dBmWpMHz"
attr unit dBmWpMHz
par WsnNetwork.visualizer.canvasVisualizer.mediumVisualizer autoTimeAxis true
par WsnNetwork.visualizer.canvasVisualizer.mediumVisualizer signalMinTime 0s
attr unit s
par WsnNetwork.visualizer.canvasVisualizer.mediumVisualizer signalMaxTime 0s
attr unit s
par WsnNetwork.visualizer.canvasVisualizer.mediumVisualizer autoFrequencyAxis true
par WsnNetwork.visualizer.canvasVisualizer.mediumVisualizer signalMinFrequency "inf Hz"
attr unit Hz
par WsnNetwork.visualizer.canvasVisualizer.mediumVisualizer signalMaxFrequency "-inf Hz"
attr unit Hz
par WsnNetwork.visualizer.canvasVisualizer.mediumVisualizer displayMainPowerDensityMap false
par WsnNetwork.visualizer.canvasVisualizer.mediumVisualizer mainPowerDensityMapPixmapDensity 1
par WsnNetwork.visualizer.canvasVisualizer.mediumVisualizer mainPowerDensityMapMinX 0
par WsnNetwork.visualizer.canvasVisualizer.mediumVisualizer mainPowerDensityMapMaxX "nan "
par WsnNetwork.visualizer.canvasVisualizer.mediumVisualizer mainPowerDensityMapMinY 0
par WsnNetwork.visualizer.canvasVisualizer.mediumVisualizer mainPowerDensityMapMaxY "nan "
par WsnNetwork.visualizer.canvasVisualizer.mediumVisualizer mainPowerDensityMapZ 0
par WsnNetwork.visualizer.canvasVisualizer.mediumVisualizer mainPowerDensityMapFigureXTickCount 3
par WsnNetwork.visualizer.canvasVisualizer.mediumVisualizer mainPowerDensityMapFigureYTickCount 3
par WsnNetwork.visualizer.canvasVisualizer.mediumVisualizer displayPowerDensityMaps false
par WsnNetwork.visualizer.canvasVisualizer.mediumVisualizer powerDensityMapMode "\"auto\""
attr enum total,signal,auto
par WsnNetwork.visualizer.canvasVisualizer.mediumVisualizer powerDensityMapPixelMode "\"mean\""
attr enum sample,partition,mean
par WsnNetwork.visualizer.canvasVisualizer.mediumVisualizer powerDensityMapApproximationSize 10
par WsnNetwork.visualizer.canvasVisualizer.mediumVisualizer powerDensityMapCenterFrequency "nan Hz"
attr mutable ""
attr unit Hz
par WsnNetwork.visualizer.canvasVisualizer.mediumVisualizer powerDensityMapBandwidth 0Hz
attr mutable ""
attr unit Hz
par WsnNetwork.visualizer.canvasVisualizer.mediumVisualizer powerDensityMapFigureWidth 200
par WsnNetwork.visualizer.canvasVisualizer.mediumVisualizer powerDensityMapFigureHeight 120
par WsnNetwork.visualizer.canvasVisualizer.mediumVisualizer powerDensityMapPixmapWidth 200
par WsnNetwork.visualizer.canvasVisualizer.mediumVisualizer powerDensityMapPixmapHeight 120
par WsnNetwork.visualizer.canvasVisualizer.mediumVisualizer powerDensityMapZ 0
par WsnNetwork.visualizer.canvasVisualizer.mediumVisualizer powerDensityMapFigureXTickCount 3
par WsnNetwork.visualizer.canvasVisualizer.mediumVisualizer powerDensityMapFigureYTickCount 3
par WsnNetwork.visualizer.canvasVisualizer.mediumVisualizer displaySpectrums false
par WsnNetwork.visualizer.canvasVisualizer.mediumVisualizer spectrumMode "\"auto\""
attr enum total,signal,auto
par WsnNetwork.visualizer.canvasVisualizer.mediumVisualizer spectrumFigureWidth 200
par WsnNetwork.visualizer.canvasVisualizer.mediumVisualizer spectrumFigureHeight 120
par WsnNetwork.visualizer.canvasVisualizer.mediumVisualizer spectrumFigureXTickCount 3
par WsnNetwork.visualizer.canvasVisualizer.mediumVisualizer spectrumFigureYTickCount 5
par WsnNetwork.visualizer.canvasVisualizer.mediumVisualizer spectrumFigureInterpolationSize 5
par WsnNetwork.visualizer.canvasVisualizer.mediumVisualizer spectrumPlacementHint "\"bottomCenter\""
par WsnNetwork.visualizer.canvasVisualizer.mediumVisualizer spectrumPlacementPriority -1
par WsnNetwork.visualizer.canvasVisualizer.mediumVisualizer displaySpectrograms false
par WsnNetwork.visualizer.canvasVisualizer.mediumVisualizer spectrogramMode "\"auto\""
attr enum total,signal,auto
par WsnNetwork.visualizer.canvasVisualizer.mediumVisualizer spectrogramPixelMode "\"mean\""
attr enum sample,partition,mean
par WsnNetwork.visualizer.canvasVisualizer.mediumVisualizer spectrogramFigureWidth 200
par WsnNetwork.visualizer.canvasVisualizer.mediumVisualizer spectrogramFigureHeight 120
par WsnNetwork.visualizer.canvasVisualizer.mediumVisualizer spectrogramPixmapWidth 200
par WsnNetwork.visualizer.canvasVisualizer.mediumVisualizer spectrogramPixmapHeight 120
par WsnNetwork.visualizer.canvasVisualizer.mediumVisualizer spectrogramFigureXTickCount 3
par WsnNetwork.visualizer.canvasVisualizer.mediumVisualizer spectrogramFigureYTickCount 5
par WsnNetwork.visualizer.canvasVisualizer.mediumVisualizer spectrogramPlacementHint "\"bottomCenter\""
par WsnNetwork.visualizer.canvasVisualizer.mediumVisualizer spectrogramPlacementPriority -1
par WsnNetwork.visualizer.canvasVisualizer.mediumVisualizer zIndex 0
par WsnNetwork.visualizer.canvasVisualizer.mediumVisualizer signalShape "\"ring\""
attr enum ring,sphere
par WsnNetwork.visualizer.canvasVisualizer.mediumVisualizer signalOpacity 0.5
par WsnNetwork.visualizer.canvasVisualizer.mediumVisualizer signalRingCount 20
par WsnNetwork.visualizer.canvasVisualizer.mediumVisualizer signalRingSize 50m
attr unit m
par WsnNetwork.visualizer.canvasVisualizer.mediumVisualizer signalFadingDistance 50m
attr unit m
par WsnNetwork.visualizer.canvasVisualizer.mediumVisualizer signalFadingFactor 1.2
par WsnNetwork.visualizer.canvasVisualizer.mediumVisualizer signalWaveCount 20
par WsnNetwork.visualizer.canvasVisualizer.mediumVisualizer signalWaveLength 50m
attr unit m
par WsnNetwork.visualizer.canvasVisualizer.mediumVisualizer signalWaveWidth 10m
attr unit m
par WsnNetwork.visualizer.canvasVisualizer.mediumVisualizer signalWaveFadingAnimationSpeedFactor 1
par WsnNetwork.visualizer.canvasVisualizer.mediumVisualizer displayCommunicationHeat false
par WsnNetwork.visualizer.canvasVisualizer.obstacleLossVisualizer typename "\"inet.visualizer.canvas.physicallayer.TracingObstacleLossCanvasVisualizer\""
par WsnNetwork.visualizer.canvasVisualizer.obstacleLossVisualizer visualizationTargetModule "\"^.^.^\""
par WsnNetwork.visualizer.canvasVisualizer.obstacleLossVisualizer visualizationSubjectModule "\"^.^.^\""
par WsnNetwork.visualizer.canvasVisualizer.obstacleLossVisualizer tags "\"\""
par WsnNetwork.visualizer.canvasVisualizer.obstacleLossVisualizer displayIntersections false
par WsnNetwork.visualizer.canvasVisualizer.obstacleLossVisualizer intersectionLineColor "\"red\""
par WsnNetwork.visualizer.canvasVisualizer.obstacleLossVisualizer intersectionLineStyle "\"solid\""
par WsnNetwork.visualizer.canvasVisualizer.obstacleLossVisualizer intersectionLineWidth 1
par WsnNetwork.visualizer.canvasVisualizer.obstacleLossVisualizer displayFaceNormalVectors false
par WsnNetwork.visualizer.canvasVisualizer.obstacleLossVisualizer faceNormalLineColor "\"grey\""
par WsnNetwork.visualizer.canvasVisualizer.obstacleLossVisualizer faceNormalLineStyle "\"solid\""
par WsnNetwork.visualizer.canvasVisualizer.obstacleLossVisualizer faceNormalLineWidth 1
par WsnNetwork.visualizer.canvasVisualizer.obstacleLossVisualizer fadeOutMode "\"realTime\""
attr enum realTime,animationTime,simulationTime
par WsnNetwork.visualizer.canvasVisualizer.obstacleLossVisualizer fadeOutTime 1s
attr unit s
par WsnNetwork.visualizer.canvasVisualizer.obstacleLossVisualizer fadeOutAnimationSpeed 0
par WsnNetwork.visualizer.canvasVisualizer.obstacleLossVisualizer zIndex 0
par WsnNetwork.visualizer.canvasVisualizer.packetDropVisualizer typename "\"inet.visualizer.canvas.common.PacketDropCanvasVisualizer\""
par WsnNetwork.visualizer.canvasVisualizer.packetDropVisualizer visualizationTargetModule "\"^.^.^\""
par WsnNetwork.visualizer.canvasVisualizer.packetDropVisualizer visualizationSubjectModule "\"^.^.^\""
par WsnNetwork.visualizer.canvasVisualizer.packetDropVisualizer tags "\"\""
par WsnNetwork.visualizer.canvasVisualizer.packetDropVisualizer displayPacketDrops false
par WsnNetwork.visualizer.canvasVisualizer.packetDropVisualizer nodeFilter "\"*\""
attr mutable ""
par WsnNetwork.visualizer.canvasVisualizer.packetDropVisualizer interfaceFilter "\"*\""
attr mutable ""
par WsnNetwork.visualizer.canvasVisualizer.packetDropVisualizer packetFilter "(omnetpp::cValueHolder)holder: \"*\""
attr mutable ""
par WsnNetwork.visualizer.canvasVisualizer.packetDropVisualizer detailsFilter "\"*\""
attr mutable ""
par WsnNetwork.visualizer.canvasVisualizer.packetDropVisualizer icon "\"msg/packet_s\""
par WsnNetwork.visualizer.canvasVisualizer.packetDropVisualizer iconTintAmount 1
par WsnNetwork.visualizer.canvasVisualizer.packetDropVisualizer iconTintColor "\"dark\""
par WsnNetwork.visualizer.canvasVisualizer.packetDropVisualizer labelFormat "\"%n\""
attr mutable ""
par WsnNetwork.visualizer.canvasVisualizer.packetDropVisualizer labelFont "\"<default>\""
par WsnNetwork.visualizer.canvasVisualizer.packetDropVisualizer labelColor "\"black\""
par WsnNetwork.visualizer.canvasVisualizer.packetDropVisualizer fadeOutMode "\"realTime\""
attr enum realTime,animationTime,simulationTime
par WsnNetwork.visualizer.canvasVisualizer.packetDropVisualizer fadeOutTime 1s
attr unit s
par WsnNetwork.visualizer.canvasVisualizer.packetDropVisualizer fadeOutAnimationSpeed 0
par WsnNetwork.visualizer.canvasVisualizer.packetDropVisualizer zIndex 10
par WsnNetwork.visualizer.canvasVisualizer.packetDropVisualizer dx 32
par WsnNetwork.visualizer.canvasVisualizer.packetDropVisualizer dy 64
par WsnNetwork.visualizer.canvasVisualizer.packetFlowVisualizer typename "\"inet.visualizer.canvas.flow.PacketFlowCanvasVisualizer\""
par WsnNetwork.visualizer.canvasVisualizer.packetFlowVisualizer visualizationTargetModule "\"^.^.^\""
par WsnNetwork.visualizer.canvasVisualizer.packetFlowVisualizer visualizationSubjectModule "\"^.^.^\""
par WsnNetwork.visualizer.canvasVisualizer.packetFlowVisualizer tags "\"\""
par WsnNetwork.visualizer.canvasVisualizer.packetFlowVisualizer displayRoutes false
par WsnNetwork.visualizer.canvasVisualizer.packetFlowVisualizer startPathSignal "\"packetFlowStarted\""
par WsnNetwork.visualizer.canvasVisualizer.packetFlowVisualizer extendPathSignal "\"packetReceivedFromLower\""
par WsnNetwork.visualizer.canvasVisualizer.packetFlowVisualizer endPathSignal "\"packetFlowEnded\""
par WsnNetwork.visualizer.canvasVisualizer.packetFlowVisualizer nodeFilter "\"*\""
attr mutable ""
par WsnNetwork.visualizer.canvasVisualizer.packetFlowVisualizer packetFilter "(omnetpp::cValueHolder)holder: \"*\""
attr mutable ""
par WsnNetwork.visualizer.canvasVisualizer.packetFlowVisualizer lineColor "\"dark\""
par WsnNetwork.visualizer.canvasVisualizer.packetFlowVisualizer lineStyle "\"dashed\""
par WsnNetwork.visualizer.canvasVisualizer.packetFlowVisualizer lineWidth 3
par WsnNetwork.visualizer.canvasVisualizer.packetFlowVisualizer lineSmooth false
par WsnNetwork.visualizer.canvasVisualizer.packetFlowVisualizer lineShift 16
par WsnNetwork.visualizer.canvasVisualizer.packetFlowVisualizer lineShiftMode "\"normal\""
par WsnNetwork.visualizer.canvasVisualizer.packetFlowVisualizer lineContactSpacing 3
par WsnNetwork.visualizer.canvasVisualizer.packetFlowVisualizer lineContactMode "\"rectangular\""
attr enum circular,rectangular
par WsnNetwork.visualizer.canvasVisualizer.packetFlowVisualizer labelFormat "\"%L %p pk (%l)\""
par WsnNetwork.visualizer.canvasVisualizer.packetFlowVisualizer labelFont "\"<default>, 8px\""
par WsnNetwork.visualizer.canvasVisualizer.packetFlowVisualizer labelColor "\"\""
par WsnNetwork.visualizer.canvasVisualizer.packetFlowVisualizer fadeOutMode "\"realTime\""
attr enum realTime,animationTime,simulationTime
par WsnNetwork.visualizer.canvasVisualizer.packetFlowVisualizer fadeOutTime 0s
attr unit s
par WsnNetwork.visualizer.canvasVisualizer.packetFlowVisualizer fadeOutAnimationSpeed 0
par WsnNetwork.visualizer.canvasVisualizer.packetFlowVisualizer zIndex 4
par WsnNetwork.visualizer.canvasVisualizer.queueVisualizer typename "\"inet.visualizer.canvas.common.QueueCanvasVisualizer\""
par WsnNetwork.visualizer.canvasVisualizer.queueVisualizer visualizationTargetModule "\"^.^.^\""
par WsnNetwork.visualizer.canvasVisualizer.queueVisualizer visualizationSubjectModule "\"^.^.^\""
par WsnNetwork.visualizer.canvasVisualizer.queueVisualizer tags "\"\""
par WsnNetwork.visualizer.canvasVisualizer.queueVisualizer networkNodeVisualizerModule "\"^.networkNodeVisualizer\""
par WsnNetwork.visualizer.canvasVisualizer.queueVisualizer displayQueues false
par WsnNetwork.visualizer.canvasVisualizer.queueVisualizer queueFilter "\"**\""
par WsnNetwork.visualizer.canvasVisualizer.queueVisualizer color "\"blue\""
par WsnNetwork.visualizer.canvasVisualizer.queueVisualizer width 8
par WsnNetwork.visualizer.canvasVisualizer.queueVisualizer height 24
par WsnNetwork.visualizer.canvasVisualizer.queueVisualizer spacing 2
par WsnNetwork.visualizer.canvasVisualizer.queueVisualizer placementHint "\"right\""
par WsnNetwork.visualizer.canvasVisualizer.queueVisualizer placementPriority 0
par WsnNetwork.visualizer.canvasVisualizer.queueVisualizer zIndex 10
par WsnNetwork.visualizer.canvasVisualizer.gateScheduleVisualizer typename "\"inet.visualizer.canvas.common.GateScheduleCanvasVisualizer\""
par WsnNetwork.visualizer.canvasVisualizer.gateScheduleVisualizer visualizationTargetModule "\"^.^.^\""
par WsnNetwork.visualizer.canvasVisualizer.gateScheduleVisualizer visualizationSubjectModule "\"^.^.^\""
par WsnNetwork.visualizer.canvasVisualizer.gateScheduleVisualizer tags "\"\""
par WsnNetwork.visualizer.canvasVisualizer.gateScheduleVisualizer networkNodeVisualizerModule "\"^.networkNodeVisualizer\""
par WsnNetwork.visualizer.canvasVisualizer.gateScheduleVisualizer displayGateSchedules false
par WsnNetwork.visualizer.canvasVisualizer.gateScheduleVisualizer labelFormat "\"%i %D\""
par WsnNetwork.visualizer.canvasVisualizer.gateScheduleVisualizer gateFilter "\"**\""
par WsnNetwork.visualizer.canvasVisualizer.gateScheduleVisualizer width 100
par WsnNetwork.visualizer.canvasVisualizer.gateScheduleVisualizer height 8
par WsnNetwork.visualizer.canvasVisualizer.gateScheduleVisualizer spacing 2
par WsnNetwork.visualizer.canvasVisualizer.gateScheduleVisualizer placementHint "\"right\""
par WsnNetwork.visualizer.canvasVisualizer.gateScheduleVisualizer placementPriority 0
par WsnNetwork.visualizer.canvasVisualizer.gateScheduleVisualizer displayDuration 0s
attr mutable ""
attr unit s
par WsnNetwork.visualizer.canvasVisualizer.gateScheduleVisualizer currentTimePosition 50
par WsnNetwork.visualizer.canvasVisualizer.gateScheduleVisualizer zIndex 10
par WsnNetwork.visualizer.canvasVisualizer.radioVisualizer typename "\"inet.visualizer.canvas.physicallayer.RadioCanvasVisualizer\""
par WsnNetwork.visualizer.canvasVisualizer.radioVisualizer visualizationTargetModule "\"^.^.^\""
par WsnNetwork.visualizer.canvasVisualizer.radioVisualizer visualizationSubjectModule "\"^.^.^\""
par WsnNetwork.visualizer.canvasVisualizer.radioVisualizer tags "\"\""
par WsnNetwork.visualizer.canvasVisualizer.radioVisualizer networkNodeVisualizerModule "\"^.networkNodeVisualizer\""
par WsnNetwork.visualizer.canvasVisualizer.radioVisualizer displayRadios false
par WsnNetwork.visualizer.canvasVisualizer.radioVisualizer displayRadioMode true
par WsnNetwork.visualizer.canvasVisualizer.radioVisualizer displayReceptionState true
par WsnNetwork.visualizer.canvasVisualizer.radioVisualizer displayTransmissionState true
par WsnNetwork.visualizer.canvasVisualizer.radioVisualizer displayAntennaLobes false
par WsnNetwork.visualizer.canvasVisualizer.radioVisualizer radioFilter "\"**\""
attr mutable ""
par WsnNetwork.visualizer.canvasVisualizer.radioVisualizer radioModeImages "\"block/process_vs block/timer_vs block/wrx_vs block/wtx_vs block/wrxtx_vs block/cogwheel_vs\""
par WsnNetwork.visualizer.canvasVisualizer.radioVisualizer receptionStateImages "\"- - misc/receiving misc/receiving\""
par WsnNetwork.visualizer.canvasVisualizer.radioVisualizer transmissionStateImages "\"- - misc/transmitting\""
par WsnNetwork.visualizer.canvasVisualizer.radioVisualizer width 16
par WsnNetwork.visualizer.canvasVisualizer.radioVisualizer height 16
par WsnNetwork.visualizer.canvasVisualizer.radioVisualizer placementHint "\"bottomRight\""
par WsnNetwork.visualizer.canvasVisualizer.radioVisualizer placementPriority 0
par WsnNetwork.visualizer.canvasVisualizer.radioVisualizer antennaLobeNormalize false
par WsnNetwork.visualizer.canvasVisualizer.radioVisualizer antennaLobeRelativeLabels false
par WsnNetwork.visualizer.canvasVisualizer.radioVisualizer antennaLobePlaneGlobal true
par WsnNetwork.visualizer.canvasVisualizer.radioVisualizer antennaLobePlane "\"view\""
attr enum view,xy,xz,yz
par WsnNetwork.visualizer.canvasVisualizer.radioVisualizer antennaLobeMode "\"logarithmic\""
attr enum logarithmic,linear
par WsnNetwork.visualizer.canvasVisualizer.radioVisualizer antennaLobeLogarithmicBase 10
par WsnNetwork.visualizer.canvasVisualizer.radioVisualizer antennaLobeLogarithmicScale 100
par WsnNetwork.visualizer.canvasVisualizer.radioVisualizer antennaLobeRadius 100
par WsnNetwork.visualizer.canvasVisualizer.radioVisualizer antennaLobeStep 10deg
attr unit deg
par WsnNetwork.visualizer.canvasVisualizer.radioVisualizer antennaLobeOpacity 0.25
par WsnNetwork.visualizer.canvasVisualizer.radioVisualizer antennaLobeLineSmooth true
par WsnNetwork.visualizer.canvasVisualizer.radioVisualizer antennaLobeLineColor "\"black\""
par WsnNetwork.visualizer.canvasVisualizer.radioVisualizer antennaLobeLineStyle "\"solid\""
par WsnNetwork.visualizer.canvasVisualizer.radioVisualizer antennaLobeLineWidth 1
par WsnNetwork.visualizer.canvasVisualizer.radioVisualizer antennaLobeFillColor "\"white\""
par WsnNetwork.visualizer.canvasVisualizer.radioVisualizer zIndex 10
par WsnNetwork.visualizer.canvasVisualizer.physicalLinkVisualizer typename "\"inet.visualizer.canvas.physicallayer.PhysicalLinkCanvasVisualizer\""
par WsnNetwork.visualizer.canvasVisualizer.physicalLinkVisualizer visualizationTargetModule "\"^.^.^\""
par WsnNetwork.visualizer.canvasVisualizer.physicalLinkVisualizer visualizationSubjectModule "\"^.^.^\""
par WsnNetwork.visualizer.canvasVisualizer.physicalLinkVisualizer tags "\"\""
par WsnNetwork.visualizer.canvasVisualizer.physicalLinkVisualizer displayLinks false
par WsnNetwork.visualizer.canvasVisualizer.physicalLinkVisualizer activityLevel "\"service\""
attr enum service,peer,protocol
par WsnNetwork.visualizer.canvasVisualizer.physicalLinkVisualizer nodeFilter "\"*\""
attr mutable ""
par WsnNetwork.visualizer.canvasVisualizer.physicalLinkVisualizer interfaceFilter "\"*\""
attr mutable ""
par WsnNetwork.visualizer.canvasVisualizer.physicalLinkVisualizer packetFilter "(omnetpp::cValueHolder)holder: \"*\""
attr mutable ""
par WsnNetwork.visualizer.canvasVisualizer.physicalLinkVisualizer lineColor "\"olive\""
par WsnNetwork.visualizer.canvasVisualizer.physicalLinkVisualizer lineStyle "\"dotted\""
par WsnNetwork.visualizer.canvasVisualizer.physicalLinkVisualizer lineWidth 3
par WsnNetwork.visualizer.canvasVisualizer.physicalLinkVisualizer lineShift 16
par WsnNetwork.visualizer.canvasVisualizer.physicalLinkVisualizer lineShiftMode "\"normal\""
par WsnNetwork.visualizer.canvasVisualizer.physicalLinkVisualizer lineContactSpacing 3
par WsnNetwork.visualizer.canvasVisualizer.physicalLinkVisualizer lineContactMode "\"rectangular\""
attr enum circular,rectangular
par WsnNetwork.visualizer.canvasVisualizer.physicalLinkVisualizer labelFormat "\"%n\""
par WsnNetwork.visualizer.canvasVisualizer.physicalLinkVisualizer labelFont "\"<default>, 8px\""
par WsnNetwork.visualizer.canvasVisualizer.physicalLinkVisualizer labelColor "\"olive\""
par WsnNetwork.visualizer.canvasVisualizer.physicalLinkVisualizer fadeOutMode "\"realTime\""
attr enum realTime,animationTime,simulationTime
par WsnNetwork.visualizer.canvasVisualizer.physicalLinkVisualizer fadeOutTime 1s
attr unit s
par WsnNetwork.visualizer.canvasVisualizer.physicalLinkVisualizer fadeOutAnimationSpeed 0
par WsnNetwork.visualizer.canvasVisualizer.physicalLinkVisualizer holdAnimationTime 0s
attr unit s
par WsnNetwork.visualizer.canvasVisualizer.physicalLinkVisualizer zIndex 1
par WsnNetwork.visualizer.canvasVisualizer.interfaceTableVisualizer typename "\"inet.visualizer.canvas.linklayer.InterfaceTableCanvasVisualizer\""
par WsnNetwork.visualizer.canvasVisualizer.interfaceTableVisualizer visualizationTargetModule "\"^.^.^\""
par WsnNetwork.visualizer.canvasVisualizer.interfaceTableVisualizer visualizationSubjectModule "\"^.^.^\""
par WsnNetwork.visualizer.canvasVisualizer.interfaceTableVisualizer tags "\"\""
par WsnNetwork.visualizer.canvasVisualizer.interfaceTableVisualizer networkNodeVisualizerModule "\"^.networkNodeVisualizer\""
par WsnNetwork.visualizer.canvasVisualizer.interfaceTableVisualizer displayInterfaceTables false
par WsnNetwork.visualizer.canvasVisualizer.interfaceTableVisualizer displayWiredInterfacesAtConnections true
par WsnNetwork.visualizer.canvasVisualizer.interfaceTableVisualizer displayBackground false
par WsnNetwork.visualizer.canvasVisualizer.interfaceTableVisualizer nodeFilter "\"*\""
attr mutable ""
par WsnNetwork.visualizer.canvasVisualizer.interfaceTableVisualizer interfaceFilter "\"not(lo*)\""
attr mutable ""
par WsnNetwork.visualizer.canvasVisualizer.interfaceTableVisualizer format "\"%N %\\\\%a%/%l\""
attr mutable ""
par WsnNetwork.visualizer.canvasVisualizer.interfaceTableVisualizer placementHint "\"top\""
par WsnNetwork.visualizer.canvasVisualizer.interfaceTableVisualizer placementPriority 0
par WsnNetwork.visualizer.canvasVisualizer.interfaceTableVisualizer font "\"<default>\""
par WsnNetwork.visualizer.canvasVisualizer.interfaceTableVisualizer textColor "\"#005030\""
par WsnNetwork.visualizer.canvasVisualizer.interfaceTableVisualizer backgroundColor "\"white\""
par WsnNetwork.visualizer.canvasVisualizer.interfaceTableVisualizer opacity 1
par WsnNetwork.visualizer.canvasVisualizer.interfaceTableVisualizer zIndex 10
par WsnNetwork.visualizer.canvasVisualizer.dataLinkVisualizer typename "\"inet.visualizer.canvas.linklayer.DataLinkCanvasVisualizer\""
par WsnNetwork.visualizer.canvasVisualizer.dataLinkVisualizer visualizationTargetModule "\"^.^.^\""
par WsnNetwork.visualizer.canvasVisualizer.dataLinkVisualizer visualizationSubjectModule "\"^.^.^\""
par WsnNetwork.visualizer.canvasVisualizer.dataLinkVisualizer tags "\"\""
par WsnNetwork.visualizer.canvasVisualizer.dataLinkVisualizer displayLinks false
par WsnNetwork.visualizer.canvasVisualizer.dataLinkVisualizer activityLevel "\"service\""
attr enum service,peer,protocol
par WsnNetwork.visualizer.canvasVisualizer.dataLinkVisualizer nodeFilter "\"*\""
attr mutable ""
par WsnNetwork.visualizer.canvasVisualizer.dataLinkVisualizer interfaceFilter "\"*\""
attr mutable ""
par WsnNetwork.visualizer.canvasVisualizer.dataLinkVisualizer packetFilter "(omnetpp::cValueHolder)holder: \"*\""
attr mutable ""
par WsnNetwork.visualizer.canvasVisualizer.dataLinkVisualizer lineColor "\"darkcyan\""
par WsnNetwork.visualizer.canvasVisualizer.dataLinkVisualizer lineStyle "\"solid\""
par WsnNetwork.visualizer.canvasVisualizer.dataLinkVisualizer lineWidth 3
par WsnNetwork.visualizer.canvasVisualizer.dataLinkVisualizer lineShift 16
par WsnNetwork.visualizer.canvasVisualizer.dataLinkVisualizer lineShiftMode "\"normal\""
par WsnNetwork.visualizer.canvasVisualizer.dataLinkVisualizer lineContactSpacing 3
par WsnNetwork.visualizer.canvasVisualizer.dataLinkVisualizer lineContactMode "\"rectangular\""
attr enum circular,rectangular
par WsnNetwork.visualizer.canvasVisualizer.dataLinkVisualizer labelFormat "\"%n\""
par WsnNetwork.visualizer.canvasVisualizer.dataLinkVisualizer labelFont "\"<default>, 8px\""
par WsnNetwork.visualizer.canvasVisualizer.dataLinkVisualizer labelColor "\"darkcyan\""
par WsnNetwork.visualizer.canvasVisualizer.dataLinkVisualizer fadeOutMode "\"realTime\""
attr enum realTime,animationTime,simulationTime
par WsnNetwork.visualizer.canvasVisualizer.dataLinkVisualizer fadeOutTime 1s
attr unit s
par WsnNetwork.visualizer.canvasVisualizer.dataLinkVisualizer fadeOutAnimationSpeed 0
par WsnNetwork.visualizer.canvasVisualizer.dataLinkVisualizer holdAnimationTime 0s
attr unit s
par WsnNetwork.visualizer.canvasVisualizer.dataLinkVisualizer zIndex 2
par WsnNetwork.visualizer.canvasVisualizer.linkBreakVisualizer typename "\"inet.visualizer.canvas.linklayer.LinkBreakCanvasVisualizer\""
par WsnNetwork.visualizer.canvasVisualizer.linkBreakVisualizer visualizationTargetModule "\"^.^.^\""
par WsnNetwork.visualizer.canvasVisualizer.linkBreakVisualizer visualizationSubjectModule "\"^.^.^\""
par WsnNetwork.visualizer.canvasVisualizer.linkBreakVisualizer tags "\"\""
par WsnNetwork.visualizer.canvasVisualizer.linkBreakVisualizer displayLinkBreaks false
par WsnNetwork.visualizer.canvasVisualizer.linkBreakVisualizer nodeFilter "\"*\""
attr mutable ""
par WsnNetwork.visualizer.canvasVisualizer.linkBreakVisualizer interfaceFilter "\"*\""
attr mutable ""
par WsnNetwork.visualizer.canvasVisualizer.linkBreakVisualizer packetFilter "(omnetpp::cValueHolder)holder: \"*\""
attr mutable ""
par WsnNetwork.visualizer.canvasVisualizer.linkBreakVisualizer icon "\"status/stop\""
par WsnNetwork.visualizer.canvasVisualizer.linkBreakVisualizer iconTintAmount 0
par WsnNetwork.visualizer.canvasVisualizer.linkBreakVisualizer iconTintColor "\"\""
par WsnNetwork.visualizer.canvasVisualizer.linkBreakVisualizer fadeOutMode "\"realTime\""
attr enum realTime,animationTime,simulationTime
par WsnNetwork.visualizer.canvasVisualizer.linkBreakVisualizer fadeOutTime 1s
attr unit s
par WsnNetwork.visualizer.canvasVisualizer.linkBreakVisualizer fadeOutAnimationSpeed 0
par WsnNetwork.visualizer.canvasVisualizer.linkBreakVisualizer zIndex 2
par WsnNetwork.visualizer.canvasVisualizer.ieee80211Visualizer typename "\"inet.visualizer.canvas.linklayer.Ieee80211CanvasVisualizer\""
par WsnNetwork.visualizer.canvasVisualizer.ieee80211Visualizer visualizationTargetModule "\"^.^.^\""
par WsnNetwork.visualizer.canvasVisualizer.ieee80211Visualizer visualizationSubjectModule "\"^.^.^\""
par WsnNetwork.visualizer.canvasVisualizer.ieee80211Visualizer tags "\"\""
par WsnNetwork.visualizer.canvasVisualizer.ieee80211Visualizer networkNodeVisualizerModule "\"^.networkNodeVisualizer\""
par WsnNetwork.visualizer.canvasVisualizer.ieee80211Visualizer displayAssociations false
par WsnNetwork.visualizer.canvasVisualizer.ieee80211Visualizer nodeFilter "\"*\""
attr mutable ""
par WsnNetwork.visualizer.canvasVisualizer.ieee80211Visualizer interfaceFilter "\"*\""
attr mutable ""
par WsnNetwork.visualizer.canvasVisualizer.ieee80211Visualizer minPower -85dBm
attr unit dBm
par WsnNetwork.visualizer.canvasVisualizer.ieee80211Visualizer maxPower -50dBm
attr unit dBm
par WsnNetwork.visualizer.canvasVisualizer.ieee80211Visualizer icons "\"misc/signal_power_0 misc/signal_power_1 misc/signal_power_2 misc/signal_power_3\""
par WsnNetwork.visualizer.canvasVisualizer.ieee80211Visualizer iconColor "\"dark\""
par WsnNetwork.visualizer.canvasVisualizer.ieee80211Visualizer labelFont "\"<default>\""
par WsnNetwork.visualizer.canvasVisualizer.ieee80211Visualizer labelColor "\"black\""
par WsnNetwork.visualizer.canvasVisualizer.ieee80211Visualizer placementHint "\"top\""
par WsnNetwork.visualizer.canvasVisualizer.ieee80211Visualizer placementPriority 0
par WsnNetwork.visualizer.canvasVisualizer.ieee80211Visualizer zIndex 2
par WsnNetwork.visualizer.canvasVisualizer.networkRouteVisualizer typename "\"inet.visualizer.canvas.networklayer.NetworkRouteCanvasVisualizer\""
par WsnNetwork.visualizer.canvasVisualizer.networkRouteVisualizer visualizationTargetModule "\"^.^.^\""
par WsnNetwork.visualizer.canvasVisualizer.networkRouteVisualizer visualizationSubjectModule "\"^.^.^\""
par WsnNetwork.visualizer.canvasVisualizer.networkRouteVisualizer tags "\"\""
par WsnNetwork.visualizer.canvasVisualizer.networkRouteVisualizer displayRoutes false
par WsnNetwork.visualizer.canvasVisualizer.networkRouteVisualizer startPathSignal "\"packetReceivedFromUpper\""
par WsnNetwork.visualizer.canvasVisualizer.networkRouteVisualizer extendPathSignal "\"packetReceivedFromLower\""
par WsnNetwork.visualizer.canvasVisualizer.networkRouteVisualizer endPathSignal "\"packetSentToUpper\""
par WsnNetwork.visualizer.canvasVisualizer.networkRouteVisualizer nodeFilter "\"*\""
attr mutable ""
par WsnNetwork.visualizer.canvasVisualizer.networkRouteVisualizer packetFilter "(omnetpp::cValueHolder)holder: \"*\""
attr mutable ""
par WsnNetwork.visualizer.canvasVisualizer.networkRouteVisualizer lineColor "\"dark\""
par WsnNetwork.visualizer.canvasVisualizer.networkRouteVisualizer lineStyle "\"solid\""
par WsnNetwork.visualizer.canvasVisualizer.networkRouteVisualizer lineWidth 3
par WsnNetwork.visualizer.canvasVisualizer.networkRouteVisualizer lineSmooth false
par WsnNetwork.visualizer.canvasVisualizer.networkRouteVisualizer lineShift 16
par WsnNetwork.visualizer.canvasVisualizer.networkRouteVisualizer lineShiftMode "\"normal\""
par WsnNetwork.visualizer.canvasVisualizer.networkRouteVisualizer lineContactSpacing 3
par WsnNetwork.visualizer.canvasVisualizer.networkRouteVisualizer lineContactMode "\"rectangular\""
attr enum circular,rectangular
par WsnNetwork.visualizer.canvasVisualizer.networkRouteVisualizer labelFormat "\"%n\""
par WsnNetwork.visualizer.canvasVisualizer.networkRouteVisualizer labelFont "\"<default>, 8px\""
par WsnNetwork.visualizer.canvasVisualizer.networkRouteVisualizer labelColor "\"\""
par WsnNetwork.visualizer.canvasVisualizer.networkRouteVisualizer fadeOutMode "\"realTime\""
attr enum realTime,animationTime,simulationTime
par WsnNetwork.visualizer.canvasVisualizer.networkRouteVisualizer fadeOutTime 1s
attr unit s
par WsnNetwork.visualizer.canvasVisualizer.networkRouteVisualizer fadeOutAnimationSpeed 0
par WsnNetwork.visualizer.canvasVisualizer.networkRouteVisualizer zIndex 3
par WsnNetwork.visualizer.canvasVisualizer.routingTableVisualizer typename "\"inet.visualizer.canvas.networklayer.RoutingTableCanvasVisualizer\""
par WsnNetwork.visualizer.canvasVisualizer.routingTableVisualizer visualizationTargetModule "\"^.^.^\""
par WsnNetwork.visualizer.canvasVisualizer.routingTableVisualizer visualizationSubjectModule "\"^.^.^\""
par WsnNetwork.visualizer.canvasVisualizer.routingTableVisualizer tags "\"\""
par WsnNetwork.visualizer.canvasVisualizer.routingTableVisualizer displayRoutingTables false
par WsnNetwork.visualizer.canvasVisualizer.routingTableVisualizer displayRoutesIndividually true
par WsnNetwork.visualizer.canvasVisualizer.routingTableVisualizer displayLabels true
par WsnNetwork.visualizer.canvasVisualizer.routingTableVisualizer destinationFilter "\"*\""
attr mutable ""
par WsnNetwork.visualizer.canvasVisualizer.routingTableVisualizer nodeFilter "\"*\""
attr mutable ""
par WsnNetwork.visualizer.canvasVisualizer.routingTableVisualizer lineColor "\"black\""
par WsnNetwork.visualizer.canvasVisualizer.routingTableVisualizer lineStyle "\"solid\""
par WsnNetwork.visualizer.canvasVisualizer.routingTableVisualizer lineWidth 2
par WsnNetwork.visualizer.canvasVisualizer.routingTableVisualizer lineShift 16
par WsnNetwork.visualizer.canvasVisualizer.routingTableVisualizer lineShiftMode "\"normal\""
par WsnNetwork.visualizer.canvasVisualizer.routingTableVisualizer lineContactSpacing 3
par WsnNetwork.visualizer.canvasVisualizer.routingTableVisualizer lineContactMode "\"rectangular\""
attr enum circular,rectangular
par WsnNetwork.visualizer.canvasVisualizer.routingTableVisualizer labelFormat "\"%d/%m -> %g (%n)\""
attr mutable ""
par WsnNetwork.visualizer.canvasVisualizer.routingTableVisualizer labelFont "\"<default>, 8px\""
par WsnNetwork.visualizer.canvasVisualizer.routingTableVisualizer labelColor "\"black\""
par WsnNetwork.visualizer.canvasVisualizer.routingTableVisualizer zIndex 0
par WsnNetwork.visualizer.canvasVisualizer.transportRouteVisualizer typename "\"inet.visualizer.canvas.transportlayer.TransportRouteCanvasVisualizer\""
par WsnNetwork.visualizer.canvasVisualizer.transportRouteVisualizer visualizationTargetModule "\"^.^.^\""
par WsnNetwork.visualizer.canvasVisualizer.transportRouteVisualizer visualizationSubjectModule "\"^.^.^\""
par WsnNetwork.visualizer.canvasVisualizer.transportRouteVisualizer tags "\"\""
par WsnNetwork.visualizer.canvasVisualizer.transportRouteVisualizer displayRoutes false
par WsnNetwork.visualizer.canvasVisualizer.transportRouteVisualizer startPathSignal "\"packetReceivedFromUpper\""
par WsnNetwork.visualizer.canvasVisualizer.transportRouteVisualizer extendPathSignal "\"packetReceivedFromLower\""
par WsnNetwork.visualizer.canvasVisualizer.transportRouteVisualizer endPathSignal "\"packetSentToUpper\""
par WsnNetwork.visualizer.canvasVisualizer.transportRouteVisualizer nodeFilter "\"*\""
attr mutable ""
par WsnNetwork.visualizer.canvasVisualizer.transportRouteVisualizer packetFilter "(omnetpp::cValueHolder)holder: \"*\""
attr mutable ""
par WsnNetwork.visualizer.canvasVisualizer.transportRouteVisualizer lineColor "\"dark\""
par WsnNetwork.visualizer.canvasVisualizer.transportRouteVisualizer lineStyle "\"solid\""
par WsnNetwork.visualizer.canvasVisualizer.transportRouteVisualizer lineWidth 3
par WsnNetwork.visualizer.canvasVisualizer.transportRouteVisualizer lineSmooth false
par WsnNetwork.visualizer.canvasVisualizer.transportRouteVisualizer lineShift 16
par WsnNetwork.visualizer.canvasVisualizer.transportRouteVisualizer lineShiftMode "\"normal\""
par WsnNetwork.visualizer.canvasVisualizer.transportRouteVisualizer lineContactSpacing 3
par WsnNetwork.visualizer.canvasVisualizer.transportRouteVisualizer lineContactMode "\"rectangular\""
attr enum circular,rectangular
par WsnNetwork.visualizer.canvasVisualizer.transportRouteVisualizer labelFormat "\"%n\""
par WsnNetwork.visualizer.canvasVisualizer.transportRouteVisualizer labelFont "\"<default>, 8px\""
par WsnNetwork.visualizer.canvasVisualizer.transportRouteVisualizer labelColor "\"\""
par WsnNetwork.visualizer.canvasVisualizer.transportRouteVisualizer fadeOutMode "\"realTime\""
attr enum realTime,animationTime,simulationTime
par WsnNetwork.visualizer.canvasVisualizer.transportRouteVisualizer fadeOutTime 1s
attr unit s
par WsnNetwork.visualizer.canvasVisualizer.transportRouteVisualizer fadeOutAnimationSpeed 0
par WsnNetwork.visualizer.canvasVisualizer.transportRouteVisualizer zIndex 4
par WsnNetwork.visualizer.canvasVisualizer.transportConnectionVisualizer typename "\"inet.visualizer.canvas.transportlayer.TransportConnectionCanvasVisualizer\""
par WsnNetwork.visualizer.canvasVisualizer.transportConnectionVisualizer visualizationTargetModule "\"^.^.^\""
par WsnNetwork.visualizer.canvasVisualizer.transportConnectionVisualizer visualizationSubjectModule "\"^.^.^\""
par WsnNetwork.visualizer.canvasVisualizer.transportConnectionVisualizer tags "\"\""
par WsnNetwork.visualizer.canvasVisualizer.transportConnectionVisualizer networkNodeVisualizerModule "\"^.networkNodeVisualizer\""
par WsnNetwork.visualizer.canvasVisualizer.transportConnectionVisualizer displayTransportConnections false
par WsnNetwork.visualizer.canvasVisualizer.transportConnectionVisualizer sourceNodeFilter "\"*\""
attr mutable ""
par WsnNetwork.visualizer.canvasVisualizer.transportConnectionVisualizer sourcePortFilter "\"*\""
attr mutable ""
par WsnNetwork.visualizer.canvasVisualizer.transportConnectionVisualizer destinationNodeFilter "\"*\""
attr mutable ""
par WsnNetwork.visualizer.canvasVisualizer.transportConnectionVisualizer destinationPortFilter "\"*\""
attr mutable ""
par WsnNetwork.visualizer.canvasVisualizer.transportConnectionVisualizer icon "\"misc/marker_s\""
par WsnNetwork.visualizer.canvasVisualizer.transportConnectionVisualizer iconColor "\"dark\""
par WsnNetwork.visualizer.canvasVisualizer.transportConnectionVisualizer labelFont "\"<default>\""
par WsnNetwork.visualizer.canvasVisualizer.transportConnectionVisualizer labelColor "\"black\""
par WsnNetwork.visualizer.canvasVisualizer.transportConnectionVisualizer placementHint "\"top\""
par WsnNetwork.visualizer.canvasVisualizer.transportConnectionVisualizer placementPriority 0
par WsnNetwork.visualizer.canvasVisualizer.transportConnectionVisualizer zIndex 4
par WsnNetwork.visualizer.canvasVisualizer.failureProtectionConfigurationVisualizer typename "\"inet.visualizer.canvas.configurator.FailureProtectionConfigurationCanvasVisualizer\""
par WsnNetwork.visualizer.canvasVisualizer.failureProtectionConfigurationVisualizer visualizationTargetModule "\"^.^.^\""
par WsnNetwork.visualizer.canvasVisualizer.failureProtectionConfigurationVisualizer visualizationSubjectModule "\"^.^.^\""
par WsnNetwork.visualizer.canvasVisualizer.failureProtectionConfigurationVisualizer tags "\"\""
par WsnNetwork.visualizer.canvasVisualizer.failureProtectionConfigurationVisualizer displayTrees false
par WsnNetwork.visualizer.canvasVisualizer.failureProtectionConfigurationVisualizer lineColor "\"dark\""
par WsnNetwork.visualizer.canvasVisualizer.failureProtectionConfigurationVisualizer lineStyle "\"solid\""
par WsnNetwork.visualizer.canvasVisualizer.failureProtectionConfigurationVisualizer lineWidth 3
par WsnNetwork.visualizer.canvasVisualizer.failureProtectionConfigurationVisualizer lineSmooth false
par WsnNetwork.visualizer.canvasVisualizer.failureProtectionConfigurationVisualizer lineShift 16
par WsnNetwork.visualizer.canvasVisualizer.failureProtectionConfigurationVisualizer lineShiftMode "\"normal\""
par WsnNetwork.visualizer.canvasVisualizer.failureProtectionConfigurationVisualizer lineContactSpacing 3
par WsnNetwork.visualizer.canvasVisualizer.failureProtectionConfigurationVisualizer lineContactMode "\"rectangular\""
attr enum circular,rectangular
par WsnNetwork.visualizer.canvasVisualizer.failureProtectionConfigurationVisualizer failureProtectionConfiguratorModule "\"failureProtectionConfigurator\""
par WsnNetwork.visualizer.canvasVisualizer.failureProtectionConfigurationVisualizer streamFilter "\"*\""
par WsnNetwork.visualizer.canvasVisualizer.failureProtectionConfigurationVisualizer zIndex 3
par WsnNetwork.visualizer.canvasVisualizer.streamRedundancyConfigurationVisualizer typename "\"inet.visualizer.canvas.configurator.StreamRedundancyConfigurationCanvasVisualizer\""
par WsnNetwork.visualizer.canvasVisualizer.streamRedundancyConfigurationVisualizer visualizationTargetModule "\"^.^.^\""
par WsnNetwork.visualizer.canvasVisualizer.streamRedundancyConfigurationVisualizer visualizationSubjectModule "\"^.^.^\""
par WsnNetwork.visualizer.canvasVisualizer.streamRedundancyConfigurationVisualizer tags "\"\""
par WsnNetwork.visualizer.canvasVisualizer.streamRedundancyConfigurationVisualizer displayTrees false
par WsnNetwork.visualizer.canvasVisualizer.streamRedundancyConfigurationVisualizer lineColor "\"dark\""
par WsnNetwork.visualizer.canvasVisualizer.streamRedundancyConfigurationVisualizer lineStyle "\"solid\""
par WsnNetwork.visualizer.canvasVisualizer.streamRedundancyConfigurationVisualizer lineWidth 3
par WsnNetwork.visualizer.canvasVisualizer.streamRedundancyConfigurationVisualizer lineSmooth false
par WsnNetwork.visualizer.canvasVisualizer.streamRedundancyConfigurationVisualizer lineShift 16
par WsnNetwork.visualizer.canvasVisualizer.streamRedundancyConfigurationVisualizer lineShiftMode "\"normal\""
par WsnNetwork.visualizer.canvasVisualizer.streamRedundancyConfigurationVisualizer lineContactSpacing 3
par WsnNetwork.visualizer.canvasVisualizer.streamRedundancyConfigurationVisualizer lineContactMode "\"rectangular\""
attr enum circular,rectangular
par WsnNetwork.visualizer.canvasVisualizer.streamRedundancyConfigurationVisualizer streamRedundancyConfiguratorModule "\"streamRedundancyConfigurator\""
par WsnNetwork.visualizer.canvasVisualizer.streamRedundancyConfigurationVisualizer streamFilter "\"*\""
par WsnNetwork.visualizer.canvasVisualizer.streamRedundancyConfigurationVisualizer zIndex 3
par WsnNetwork.visualizer.canvasVisualizer typename "\"inet.visualizer.canvas.integrated.IntegratedCanvasVisualizer\""
par WsnNetwork.visualizer typename "\"inet.visualizer.common.IntegratedVisualizer\""
par WsnNetwork.baseStation.status typename "\"inet.common.lifecycle.NodeStatus\""
par WsnNetwork.baseStation.status initialStatus "\"UP\""
par WsnNetwork.baseStation.interfaceTable typename "\"inet.networklayer.common.InterfaceTable\""
par WsnNetwork.baseStation.interfaceTable displayAddresses false
par WsnNetwork.baseStation.mobility typename "\"inet.mobility.static.StationaryMobility\""
par WsnNetwork.baseStation.mobility subjectModule "\"^\""
par WsnNetwork.baseStation.mobility coordinateSystemModule "\"\""
par WsnNetwork.baseStation.mobility displayStringTextFormat "\"p: %p\\nv: %v\""
attr mutable ""
par WsnNetwork.baseStation.mobility updateDisplayString true
par WsnNetwork.baseStation.mobility constraintAreaMinX "-inf m"
attr unit m
par WsnNetwork.baseStation.mobility constraintAreaMinY "-inf m"
attr unit m
par WsnNetwork.baseStation.mobility constraintAreaMinZ "-inf m"
attr unit m
par WsnNetwork.baseStation.mobility constraintAreaMaxX "inf m"
attr unit m
par WsnNetwork.baseStation.mobility constraintAreaMaxY "inf m"
attr unit m
par WsnNetwork.baseStation.mobility constraintAreaMaxZ "inf m"
attr unit m
par WsnNetwork.baseStation.mobility initialX 200m
attr unit m
par WsnNetwork.baseStation.mobility initialY 300m
attr unit m
par WsnNetwork.baseStation.mobility initialZ 0m
attr unit m
par WsnNetwork.baseStation.mobility initialLatitude "nan deg"
attr unit deg
par WsnNetwork.baseStation.mobility initialLongitude "nan deg"
attr unit deg
par WsnNetwork.baseStation.mobility initialAltitude 0m
attr unit m
par WsnNetwork.baseStation.mobility initialHeading 0deg
attr unit deg
par WsnNetwork.baseStation.mobility initialElevation 0deg
attr unit deg
par WsnNetwork.baseStation.mobility initialBank 0deg
attr unit deg
par WsnNetwork.baseStation.mobility initFromDisplayString true
par WsnNetwork.baseStation.mobility updateFromDisplayString true
par WsnNetwork.baseStation.energyStorage typename "\"inet.power.storage.IdealEpEnergyStorage\""
scalar WsnNetwork.baseStation.energyStorage residualEnergyCapacity:last nan
attr interpolationmode linear
attr recordingmode last
attr source residualEnergyCapacityChanged
attr title "Residual energy capacity, last"
attr unit J
par WsnNetwork.baseStation.routing typename "\"Leach\""
par WsnNetwork.baseStation.routing percentage 0.05
par WsnNetwork.baseStation.routing roundDuration 20s
attr unit s
scalar WsnNetwork.baseStation.routing endToEndDelay:mean -nan
attr recordingmode mean
scalar WsnNetwork.baseStation.routing packetReceived:count 0
attr recordingmode count
par WsnNetwork.baseStation.wlan.upperLayerIn.channel typename "\"ned.IdealChannel\""
par WsnNetwork.baseStation.wlan.radioIn.channel typename "\"ned.IdealChannel\""
par WsnNetwork.baseStation.wlan.mac.upperLayerOut.channel typename "\"ned.IdealChannel\""
par WsnNetwork.baseStation.wlan.queue typename "\"inet.queueing.queue.DropTailQueue\""
par WsnNetwork.baseStation.wlan.queue displayStringTextFormat "\"contains %p pk (%l) pushed %u\\npulled %o removed %r dropped %d\""
par WsnNetwork.baseStation.wlan.queue packetCapacity 100
par WsnNetwork.baseStation.wlan.queue dataCapacity -1b
attr unit b
par WsnNetwork.baseStation.wlan.queue dropperClass "\"inet::queueing::PacketAtCollectionEndDropper\""
par WsnNetwork.baseStation.wlan.queue comparatorClass "\"\""
par WsnNetwork.baseStation.wlan.queue bufferModule "\"\""
scalar WsnNetwork.baseStation.wlan.queue queueLength:last 0
attr autoWarmupFilter false
attr interpolationmode sample-hold
attr recordingmode last
attr source "warmup(atomic(constant0(packetPushEnded) + count(packetPushStarted) - count(packetPulled) - count(packetRemoved) - count(packetDropped)))"
attr title "queue length, last"
attr unit pk
scalar WsnNetwork.baseStation.wlan.queue queueLength:max 0
attr autoWarmupFilter false
attr interpolationmode sample-hold
attr recordingmode max
attr source "warmup(atomic(constant0(packetPushEnded) + count(packetPushStarted) - count(packetPulled) - count(packetRemoved) - count(packetDropped)))"
attr title "queue length, max"
attr unit pk
scalar WsnNetwork.baseStation.wlan.queue queueLength:timeavg -0
attr autoWarmupFilter false
attr interpolationmode sample-hold
attr recordingmode timeavg
attr source "warmup(atomic(constant0(packetPushEnded) + count(packetPushStarted) - count(packetPulled) - count(packetRemoved) - count(packetDropped)))"
attr title "queue length, timeavg"
attr unit pk
scalar WsnNetwork.baseStation.wlan.queue queueBitLength:last 0
attr autoWarmupFilter false
attr interpolationmode sample-hold
attr recordingmode last
attr source "warmup(atomic(constant0(packetPushEnded) + sum(packetLength(packetPushStarted)) - sum(packetLength(packetPulled)) - sum(packetLength(packetRemoved)) - sum(packetLength(packetDropped))))"
attr title "queue bit length, last"
attr unit b
scalar WsnNetwork.baseStation.wlan.queue queueBitLength:max 0
attr autoWarmupFilter false
attr interpolationmode sample-hold
attr recordingmode max
attr source "warmup(atomic(constant0(packetPushEnded) + sum(packetLength(packetPushStarted)) - sum(packetLength(packetPulled)) - sum(packetLength(packetRemoved)) - sum(packetLength(packetDropped))))"
attr title "queue bit length, max"
attr unit b
scalar WsnNetwork.baseStation.wlan.queue queueBitLength:timeavg -0
attr autoWarmupFilter false
attr interpolationmode sample-hold
attr recordingmode timeavg
attr source "warmup(atomic(constant0(packetPushEnded) + sum(packetLength(packetPushStarted)) - sum(packetLength(packetPulled)) - sum(packetLength(packetRemoved)) - sum(packetLength(packetDropped))))"
attr title "queue bit length, timeavg"
attr unit b
statistic WsnNetwork.baseStation.wlan.queue queueingTime:histogram
field count 0
field mean -nan
field stddev nan
field min nan
field max nan
field sum 0
field sqrsum 0
attr interpolationmode none
attr recordingmode histogram
attr source queueingTime(packetPulled)
attr title "queueing times"
attr unit s
bin	-inf	0
bin	0	0
bin	1	0
scalar WsnNetwork.baseStation.wlan.queue outgoingPackets:count 0
attr recordingmode count
attr source packetPulled
attr title "outgoing packets, count"
attr unit pk
scalar WsnNetwork.baseStation.wlan.queue outgoingPacketLengths:sum 0
attr interpolationmode none
attr recordingmode sum
attr source packetLength(packetPulled)
attr title "outgoing packet lengths, sum"
attr unit b
statistic WsnNetwork.baseStation.wlan.queue outgoingPacketLengths:histogram
field count 0
field mean -nan
field stddev nan
field min nan
field max nan
field sum 0
field sqrsum 0
attr interpolationmode none
attr recordingmode histogram
attr source packetLength(packetPulled)
attr title "outgoing packet lengths"
attr unit b
bin	-inf	0
bin	0	0
bin	1	0
statistic WsnNetwork.baseStation.wlan.queue flowQueueingTime:histogram
field count 0
field mean -nan
field stddev nan
field min nan
field max nan
field sum 0
field sqrsum 0
attr interpolationmode none
attr recordingmode histogram
attr source queueingTime(demuxFlow(packetPulled))
attr title "flow queueing times"
attr unit s
bin	-inf	0
bin	0	0
bin	1	0
scalar WsnNetwork.baseStation.wlan.queue incomingPackets:count 0
attr recordingmode count
attr source packetPushStarted
attr title "incoming packets, count"
attr unit pk
scalar WsnNetwork.baseStation.wlan.queue incomingPacketLengths:sum 0
attr interpolationmode none
attr recordingmode sum
attr source packetLength(packetPushStarted)
attr title "incoming packet lengths, sum"
attr unit b
statistic WsnNetwork.baseStation.wlan.queue incomingPacketLengths:histogram
field count 0
field mean -nan
field stddev nan
field min nan
field max nan
field sum 0
field sqrsum 0
attr interpolationmode none
attr recordingmode histogram
attr source packetLength(packetPushStarted)
attr title "incoming packet lengths"
attr unit b
bin	-inf	0
bin	0	0
bin	1	0
scalar WsnNetwork.baseStation.wlan.queue droppedPacketsQueueOverflow:count 0
attr interpolationmode none
attr recordingmode count
attr source packetDropReasonIsQueueOverflow(packetDropped)
attr title "dropped packets: queue overflow, count"
attr unit pk
scalar WsnNetwork.baseStation.wlan.queue droppedPacketLengthsQueueOverflow:sum 0
attr interpolationmode none
attr recordingmode sum
attr source packetLength(packetDropReasonIsQueueOverflow(packetDropped))
attr title "dropped packet lengths: queue overflow, sum"
attr unit b
par WsnNetwork.baseStation.wlan.mac typename "\"inet.linklayer.ieee802154.Ieee802154NarrowbandMac\""
par WsnNetwork.baseStation.wlan.mac interfaceTableModule "\"WsnNetwork.baseStation.wlan.^.interfaceTable\""
par WsnNetwork.baseStation.wlan.mac address "\"auto\""
attr mutable ""
par WsnNetwork.baseStation.wlan.mac headerLength 72b
attr unit b
par WsnNetwork.baseStation.wlan.mac mtu 118B
attr unit B
par WsnNetwork.baseStation.wlan.mac bitrate 250000bps
attr unit bps
par WsnNetwork.baseStation.wlan.mac ccaDetectionTime 0.000128s
attr unit s
par WsnNetwork.baseStation.wlan.mac rxSetupTime 0s
attr unit s
par WsnNetwork.baseStation.wlan.mac aTurnaroundTime 0.000192s
attr unit s
par WsnNetwork.baseStation.wlan.mac useMACAcks true
par WsnNetwork.baseStation.wlan.mac macMaxFrameRetries 3
par WsnNetwork.baseStation.wlan.mac macAckWaitDuration 0.00056s
attr unit s
par WsnNetwork.baseStation.wlan.mac ackLength 40b
attr unit b
par WsnNetwork.baseStation.wlan.mac sifs 0.000192s
attr unit s
par WsnNetwork.baseStation.wlan.mac backoffMethod "\"exponential\""
par WsnNetwork.baseStation.wlan.mac macMaxCSMABackoffs 4
par WsnNetwork.baseStation.wlan.mac aUnitBackoffPeriod 0.00032s
attr unit s
par WsnNetwork.baseStation.wlan.mac contentionWindow 2
par WsnNetwork.baseStation.wlan.mac macMinBE 3
par WsnNetwork.baseStation.wlan.mac macMaxBE 5
par WsnNetwork.baseStation.wlan.mac radioModule "\"^.radio\""
scalar WsnNetwork.baseStation.wlan.mac nbTxFrames 0
scalar WsnNetwork.baseStation.wlan.mac nbRxFrames 0
scalar WsnNetwork.baseStation.wlan.mac nbDroppedFrames 0
scalar WsnNetwork.baseStation.wlan.mac nbMissedAcks 0
scalar WsnNetwork.baseStation.wlan.mac nbRecvdAcks 0
scalar WsnNetwork.baseStation.wlan.mac nbTxAcks 0
scalar WsnNetwork.baseStation.wlan.mac nbDuplicates 0
scalar WsnNetwork.baseStation.wlan.mac meanBackoff 0
scalar WsnNetwork.baseStation.wlan.mac nbBackoffs 0
scalar WsnNetwork.baseStation.wlan.mac backoffDurations 0
scalar WsnNetwork.baseStation.wlan.mac packetDropNotAddressToUs:count 0
attr interpolationmode none
attr recordingmode count
attr source packetDropReasonIsNotAddressedToUs(packetDropped)
attr title "packet drop: not addressed to us, count"
scalar WsnNetwork.baseStation.wlan.mac packetDropNotAddressToUs:sum(packetBytes) 0
attr interpolationmode none
attr recordingmode sum(packetBytes)
attr source packetDropReasonIsNotAddressedToUs(packetDropped)
attr title "packet drop: not addressed to us, sum(packetBytes)"
scalar WsnNetwork.baseStation.wlan.mac packetDropIncorrectlyReceived:count 0
attr interpolationmode none
attr recordingmode count
attr source packetDropReasonIsIncorrectlyReceived(packetDropped)
attr title "packet drop: incorrectly received, count"
scalar WsnNetwork.baseStation.wlan.mac packetDropIncorrectlyReceived:sum(packetBytes) 0
attr interpolationmode none
attr recordingmode sum(packetBytes)
attr source packetDropReasonIsIncorrectlyReceived(packetDropped)
attr title "packet drop: incorrectly received, sum(packetBytes)"
scalar WsnNetwork.baseStation.wlan.mac packetDropQueueOverflow:count 0
attr interpolationmode none
attr recordingmode count
attr source packetDropReasonIsQueueOverflow(packetDropped)
attr title "packet drop: queue overflow, count"
scalar WsnNetwork.baseStation.wlan.mac packetDropQueueOverflow:sum(packetBytes) 0
attr interpolationmode none
attr recordingmode sum(packetBytes)
attr source packetDropReasonIsQueueOverflow(packetDropped)
attr title "packet drop: queue overflow, sum(packetBytes)"
scalar WsnNetwork.baseStation.wlan.mac packetDropRetryLimitReached:count 0
attr interpolationmode none
attr recordingmode count
attr source packetDropReasonIsRetryLimitReached(packetDropped)
attr title "packet drop: retry limit reached, count"
scalar WsnNetwork.baseStation.wlan.mac packetDropRetryLimitReached:sum(packetBytes) 0
attr interpolationmode none
attr recordingmode sum(packetBytes)
attr source packetDropReasonIsRetryLimitReached(packetDropped)
attr title "packet drop: retry limit reached, sum(packetBytes)"
scalar WsnNetwork.baseStation.wlan.mac packetDropBackoffLimitReached:count 0
attr interpolationmode none
attr recordingmode count
attr source packetDropReasonIsCongestion(packetDropped)
attr title "packet drop: backoff limit reached, count"
scalar WsnNetwork.baseStation.wlan.mac packetDropBackoffLimitReached:sum(packetBytes) 0
attr interpolationmode none
attr recordingmode sum(packetBytes)
attr source packetDropReasonIsCongestion(packetDropped)
attr title "packet drop: backoff limit reached, sum(packetBytes)"
scalar WsnNetwork.baseStation.wlan.mac linkBroken:count 0
attr interpolationmode none
attr recordingmode count
attr source linkBroken
attr title "link break, count"
par WsnNetwork.baseStation.wlan.radio.antenna typename "\"inet.physicallayer.wireless.common.antenna.IsotropicAntenna\""
par WsnNetwork.baseStation.wlan.radio.antenna mobilityModule "\"^.^.^.mobility\""
par WsnNetwork.baseStation.wlan.radio.antenna numAntennas 1
par WsnNetwork.baseStation.wlan.radio.transmitter typename "\"inet.physicallayer.wireless.ieee802154.packetlevel.Ieee802154NarrowbandScalarTransmitter\""
par WsnNetwork.baseStation.wlan.radio.transmitter preambleDuration 0.000128s
attr unit s
par WsnNetwork.baseStation.wlan.radio.transmitter headerLength 16b
attr unit b
par WsnNetwork.baseStation.wlan.radio.transmitter bitrate 250000bps
attr unit bps
par WsnNetwork.baseStation.wlan.radio.transmitter power 0.001W
attr unit W
par WsnNetwork.baseStation.wlan.radio.transmitter centerFrequency 2.45e+09Hz
attr unit Hz
par WsnNetwork.baseStation.wlan.radio.transmitter bandwidth 2.8e+06Hz
attr unit Hz
par WsnNetwork.baseStation.wlan.radio.transmitter codeRate 1
par WsnNetwork.baseStation.wlan.radio.transmitter modulation "\"DSSS-OQPSK-16\""
par WsnNetwork.baseStation.wlan.radio.receiver.errorModel typename "\"inet.physicallayer.wireless.apsk.packetlevel.errormodel.ApskErrorModel\""
par WsnNetwork.baseStation.wlan.radio.receiver.errorModel corruptionMode "\"packet\""
attr enum packet,chunk,byte,bit
par WsnNetwork.baseStation.wlan.radio.receiver.errorModel snirMode "\"min\""
attr enum min,mean
par WsnNetwork.baseStation.wlan.radio.receiver.errorModel snirOffset 0dB
attr unit dB
par WsnNetwork.baseStation.wlan.radio.receiver typename "\"inet.physicallayer.wireless.ieee802154.packetlevel.Ieee802154NarrowbandScalarReceiver\""
par WsnNetwork.baseStation.wlan.radio.receiver snirThreshold -8dB
attr unit dB
par WsnNetwork.baseStation.wlan.radio.receiver snirThresholdMode "\"min\""
attr enum min,mean
par WsnNetwork.baseStation.wlan.radio.receiver energyDetection -90dBm
attr unit dBm
par WsnNetwork.baseStation.wlan.radio.receiver sensitivity -85dBm
attr unit dBm
par WsnNetwork.baseStation.wlan.radio.receiver centerFrequency 2.45e+09Hz
attr unit Hz
par WsnNetwork.baseStation.wlan.radio.receiver bandwidth 2.8e+06Hz
attr unit Hz
par WsnNetwork.baseStation.wlan.radio.receiver modulation "\"DSSS-OQPSK-16\""
par WsnNetwork.baseStation.wlan.radio.receiver minInterferencePower -120dBm
attr unit dBm
par WsnNetwork.baseStation.wlan.radio typename "\"inet.physicallayer.wireless.ieee802154.packetlevel.Ieee802154NarrowbandScalarRadio\""
par WsnNetwork.baseStation.wlan.radio radioMediumModule "\"radioMedium\""
par WsnNetwork.baseStation.wlan.radio energySourceModule "\"\""
par WsnNetwork.baseStation.wlan.radio initialRadioMode "\"off\""
attr enum off,sleep,receiver,transmitter,transceiver
par WsnNetwork.baseStation.wlan.radio switchingTimes "\"ms 0 0 0 0 0 0 0 0 0 0 0 0 0 0 0 0 0 0 0 0 0 0 0 0 0\""
par WsnNetwork.baseStation.wlan.radio sendRawBytes false
par WsnNetwork.baseStation.wlan.radio separateTransmissionParts false
par WsnNetwork.baseStation.wlan.radio separateReceptionParts false
par WsnNetwork.baseStation.wlan.radio displayCommunicationRange false
par WsnNetwork.baseStation.wlan.radio displayInterferenceRange false
par WsnNetwork.baseStation.wlan.radio centerFrequency 2.45e+09Hz
attr unit Hz
par WsnNetwork.baseStation.wlan.radio bandwidth 2.8e+06Hz
attr unit Hz
par WsnNetwork.baseStation.wlan.radio signalAnalogRepresentation "\"scalar\""
attr enum scalar,dimensional
scalar WsnNetwork.baseStation.wlan.radio radioMode:count 0
attr interpolationmode sample-hold
attr recordingmode count
attr source radioModeChanged
attr title "Radio mode, count"
scalar WsnNetwork.baseStation.wlan.radio receptionState:count 0
attr interpolationmode sample-hold
attr recordingmode count
attr source receptionStateChanged
attr title "Radio reception state, count"
scalar WsnNetwork.baseStation.wlan.radio transmissionState:count 0
attr interpolationmode sample-hold
attr recordingmode count
attr source transmissionStateChanged
attr title "Radio transmission state, count"
statistic WsnNetwork.baseStation.wlan.radio minSnir:histogram
field count 0
field mean -nan
field stddev nan
field min nan
field max nan
field sum 0
field sqrsum 0
attr recordingmode histogram
attr source minimumSnir(packetSentToUpper)
attr title "Min SNIR"
bin	-inf	0
bin	0	0
bin	1	0
statistic WsnNetwork.baseStation.wlan.radio packetErrorRate:histogram
field count 0
field mean -nan
field stddev nan
field min nan
field max nan
field sum 0
field sqrsum 0
attr recordingmode histogram
attr source packetErrorRate(packetSentToUpper)
attr title "Packet error rate"
bin	-inf	0
bin	0	0
bin	1	0
statistic WsnNetwork.baseStation.wlan.radio bitErrorRate:histogram
field count 0
field mean -nan
field stddev nan
field min nan
field max nan
field sum 0
[...]
par WsnNetwork.node[17].interfaceTable displayAddresses false
par WsnNetwork.node[17].mobility typename "\"inet.mobility.static.StationaryMobility\""
par WsnNetwork.node[17].mobility subjectModule "\"^\""
par WsnNetwork.node[17].mobility coordinateSystemModule "\"\""
par WsnNetwork.node[17].mobility displayStringTextFormat "\"p: %p\\nv: %v\""
attr mutable ""
par WsnNetwork.node[17].mobility updateDisplayString true
par WsnNetwork.node[17].mobility constraintAreaMinX "-inf m"
attr unit m
par WsnNetwork.node[17].mobility constraintAreaMinY "-inf m"
attr unit m
par WsnNetwork.node[17].mobility constraintAreaMinZ "-inf m"
attr unit m
par WsnNetwork.node[17].mobility constraintAreaMaxX "inf m"
attr unit m
par WsnNetwork.node[17].mobility constraintAreaMaxY "inf m"
attr unit m
par WsnNetwork.node[17].mobility constraintAreaMaxZ "inf m"
attr unit m
par WsnNetwork.node[17].mobility initialX 305.892m
attr unit m
par WsnNetwork.node[17].mobility initialY 71.6771m
attr unit m
par WsnNetwork.node[17].mobility initialZ 0m
attr unit m
par WsnNetwork.node[17].mobility initialLatitude "nan deg"
attr unit deg
par WsnNetwork.node[17].mobility initialLongitude "nan deg"
attr unit deg
par WsnNetwork.node[17].mobility initialAltitude 0m
attr unit m
par WsnNetwork.node[17].mobility initialHeading 0deg
attr unit deg
par WsnNetwork.node[17].mobility initialElevation 0deg
attr unit deg
par WsnNetwork.node[17].mobility initialBank 0deg
attr unit deg
par WsnNetwork.node[17].mobility initFromDisplayString true
par WsnNetwork.node[17].mobility updateFromDisplayString true
par WsnNetwork.node[17].energyStorage typename "\"inet.power.storage.SimpleEpEnergyStorage\""
par WsnNetwork.node[17].energyStorage nominalCapacity 18J
attr unit J
par WsnNetwork.node[17].energyStorage initialCapacity 18J
attr unit J
par WsnNetwork.node[17].energyStorage printCapacityStep 0.18J
attr unit J
par WsnNetwork.node[17].energyStorage displayStringTextFormat "\"%c (%p)\""
scalar WsnNetwork.node[17].energyStorage residualEnergyCapacity:last nan
attr interpolationmode linear
attr recordingmode last
attr source residualEnergyCapacityChanged
attr title "Residual energy capacity, last"
attr unit J
par WsnNetwork.node[17].app typename "\"SensorApp\""
par WsnNetwork.node[17].app traffic "\"constant\""
par WsnNetwork.node[17].app packetInterval 0.9s
attr unit s
par WsnNetwork.node[17].app payloadBytes 64B
attr unit B
scalar WsnNetwork.node[17].app packetSent:count 0
attr recordingmode count
par WsnNetwork.node[17].routing typename "\"Pegasis\""
scalar WsnNetwork.node[17].routing endToEndDelay:mean -nan
attr recordingmode mean
scalar WsnNetwork.node[17].routing packetReceived:count 0
attr recordingmode count
par WsnNetwork.node[17].wlan.upperLayerIn.channel typename "\"ned.IdealChannel\""
par WsnNetwork.node[17].wlan.radioIn.channel typename "\"ned.IdealChannel\""
par WsnNetwork.node[17].wlan.mac.upperLayerOut.channel typename "\"ned.IdealChannel\""
par WsnNetwork.node[17].wlan.queue typename "\"inet.queueing.queue.DropTailQueue\""
par WsnNetwork.node[17].wlan.queue displayStringTextFormat "\"contains %p pk (%l) pushed %u\\npulled %o removed %r dropped %d\""
par WsnNetwork.node[17].wlan.queue packetCapacity 100
par WsnNetwork.node[17].wlan.queue dataCapacity -1b
attr unit b
par WsnNetwork.node[17].wlan.queue dropperClass "\"inet::queueing::PacketAtCollectionEndDropper\""
par WsnNetwork.node[17].wlan.queue comparatorClass "\"\""
par WsnNetwork.node[17].wlan.queue bufferModule "\"\""
scalar WsnNetwork.node[17].wlan.queue queueLength:last 0
attr autoWarmupFilter false
attr interpolationmode sample-hold
attr recordingmode last
attr source "warmup(atomic(constant0(packetPushEnded) + count(packetPushStarted) - count(packetPulled) - count(packetRemoved) - count(packetDropped)))"
attr title "queue length, last"
attr unit pk
scalar WsnNetwork.node[17].wlan.queue queueLength:max 0
attr autoWarmupFilter false
attr interpolationmode sample-hold
attr recordingmode max
attr source "warmup(atomic(constant0(packetPushEnded) + count(packetPushStarted) - count(packetPulled) - count(packetRemoved) - count(packetDropped)))"
attr title "queue length, max"
attr unit pk
scalar WsnNetwork.node[17].wlan.queue queueLength:timeavg -0
attr autoWarmupFilter false
attr interpolationmode sample-hold
attr recordingmode timeavg
attr source "warmup(atomic(constant0(packetPushEnded) + count(packetPushStarted) - count(packetPulled) - count(packetRemoved) - count(packetDropped)))"
attr title "queue length, timeavg"
attr unit pk
scalar WsnNetwork.node[17].wlan.queue queueBitLength:last 0
attr autoWarmupFilter false
attr interpolationmode sample-hold
attr recordingmode last
attr source "warmup(atomic(constant0(packetPushEnded) + sum(packetLength(packetPushStarted)) - sum(packetLength(packetPulled)) - sum(packetLength(packetRemoved)) - sum(packetLength(packetDropped))))"
attr title "queue bit length, last"
attr unit b
scalar WsnNetwork.node[17].wlan.queue queueBitLength:max 0
attr autoWarmupFilter false
attr interpolationmode sample-hold
attr recordingmode max
attr source "warmup(atomic(constant0(packetPushEnded) + sum(packetLength(packetPushStarted)) - sum(packetLength(packetPulled)) - sum(packetLength(packetRemoved)) - sum(packetLength(packetDropped))))"
attr title "queue bit length, max"
attr unit b
scalar WsnNetwork.node[17].wlan.queue queueBitLength:timeavg -0
attr autoWarmupFilter false
attr interpolationmode sample-hold
attr recordingmode timeavg
attr source "warmup(atomic(constant0(packetPushEnded) + sum(packetLength(packetPushStarted)) - sum(packetLength(packetPulled)) - sum(packetLength(packetRemoved)) - sum(packetLength(packetDropped))))"
attr title "queue bit length, timeavg"
attr unit b
statistic WsnNetwork.node[17].wlan.queue queueingTime:histogram
field count 0
field mean -nan
field stddev nan
field min nan
field max nan
field sum 0
field sqrsum 0
attr interpolationmode none
attr recordingmode histogram
attr source queueingTime(packetPulled)
attr title "queueing times"
attr unit s
bin	-inf	0
bin	0	0
bin	1	0
scalar WsnNetwork.node[17].wlan.queue outgoingPackets:count 0
attr recordingmode count
attr source packetPulled
attr title "outgoing packets, count"
attr unit pk
scalar WsnNetwork.node[17].wlan.queue outgoingPacketLengths:sum 0
attr interpolationmode none
attr recordingmode sum
attr source packetLength(packetPulled)
attr title "outgoing packet lengths, sum"
attr unit b
statistic WsnNetwork.node[17].wlan.queue outgoingPacketLengths:histogram
field count 0
field mean -nan
field stddev nan
field min nan
field max nan
field sum 0
field sqrsum 0
attr interpolationmode none
attr recordingmode histogram
attr source packetLength(packetPulled)
attr title "outgoing packet lengths"
attr unit b
bin	-inf	0
bin	0	0
bin	1	0
statistic WsnNetwork.node[17].wlan.queue flowQueueingTime:histogram
field count 0
field mean -nan
field stddev nan
field min nan
field max nan
field sum 0
field sqrsum 0
attr interpolationmode none
attr recordingmode histogram
attr source queueingTime(demuxFlow(packetPulled))
attr title "flow queueing times"
attr unit s
bin	-inf	0
bin	0	0
bin	1	0
scalar WsnNetwork.node[17].wlan.queue incomingPackets:count 0
attr recordingmode count
attr source packetPushStarted
attr title "incoming packets, count"
attr unit pk
scalar WsnNetwork.node[17].wlan.queue incomingPacketLengths:sum 0
attr interpolationmode none
attr recordingmode sum
attr source packetLength(packetPushStarted)
attr title "incoming packet lengths, sum"
attr unit b
statistic WsnNetwork.node[17].wlan.queue incomingPacketLengths:histogram
field count 0
field mean -nan
field stddev nan
field min nan
field max nan
field sum 0
field sqrsum 0
attr interpolationmode none
attr recordingmode histogram
attr source packetLength(packetPushStarted)
attr title "incoming packet lengths"
attr unit b
bin	-inf	0
bin	0	0
bin	1	0
scalar WsnNetwork.node[17].wlan.queue droppedPacketsQueueOverflow:count 0
attr interpolationmode none
attr recordingmode count
attr source packetDropReasonIsQueueOverflow(packetDropped)
attr title "dropped packets: queue overflow, count"
attr unit pk
scalar WsnNetwork.node[17].wlan.queue droppedPacketLengthsQueueOverflow:sum 0
attr interpolationmode none
attr recordingmode sum
attr source packetLength(packetDropReasonIsQueueOverflow(packetDropped))
attr title "dropped packet lengths: queue overflow, sum"
attr unit b
par WsnNetwork.node[17].wlan.mac typename "\"inet.linklayer.ieee802154.Ieee802154NarrowbandMac\""
par WsnNetwork.node[17].wlan.mac interfaceTableModule "\"WsnNetwork.node[17].wlan.^.interfaceTable\""
par WsnNetwork.node[17].wlan.mac address "\"auto\""
attr mutable ""
par WsnNetwork.node[17].wlan.mac headerLength 72b
attr unit b
par WsnNetwork.node[17].wlan.mac mtu 118B
attr unit B
par WsnNetwork.node[17].wlan.mac bitrate 250000bps
attr unit bps
par WsnNetwork.node[17].wlan.mac ccaDetectionTime 0.000128s
attr unit s
par WsnNetwork.node[17].wlan.mac rxSetupTime 0s
attr unit s
par WsnNetwork.node[17].wlan.mac aTurnaroundTime 0.000192s
attr unit s
par WsnNetwork.node[17].wlan.mac useMACAcks true
par WsnNetwork.node[17].wlan.mac macMaxFrameRetries 3
par WsnNetwork.node[17].wlan.mac macAckWaitDuration 0.00056s
attr unit s
par WsnNetwork.node[17].wlan.mac ackLength 40b
attr unit b
par WsnNetwork.node[17].wlan.mac sifs 0.000192s
attr unit s
par WsnNetwork.node[17].wlan.mac backoffMethod "\"exponential\""
par WsnNetwork.node[17].wlan.mac macMaxCSMABackoffs 4
par WsnNetwork.node[17].wlan.mac aUnitBackoffPeriod 0.00032s
attr unit s
par WsnNetwork.node[17].wlan.mac contentionWindow 2
par WsnNetwork.node[17].wlan.mac macMinBE 3
par WsnNetwork.node[17].wlan.mac macMaxBE 5
par WsnNetwork.node[17].wlan.mac radioModule "\"^.radio\""
scalar WsnNetwork.node[17].wlan.mac nbTxFrames 62
scalar WsnNetwork.node[17].wlan.mac nbRxFrames 1
scalar WsnNetwork.node[17].wlan.mac nbDroppedFrames 0
scalar WsnNetwork.node[17].wlan.mac nbMissedAcks 0
scalar WsnNetwork.node[17].wlan.mac nbRecvdAcks 0
scalar WsnNetwork.node[17].wlan.mac nbTxAcks 0
scalar WsnNetwork.node[17].wlan.mac nbDuplicates 0
scalar WsnNetwork.node[17].wlan.mac meanBackoff 0.003487232
scalar WsnNetwork.node[17].wlan.mac nbBackoffs 625
scalar WsnNetwork.node[17].wlan.mac backoffDurations 2.17952
scalar WsnNetwork.node[17].wlan.mac packetDropNotAddressToUs:count 0
attr interpolationmode none
attr recordingmode count
attr source packetDropReasonIsNotAddressedToUs(packetDropped)
attr title "packet drop: not addressed to us, count"
scalar WsnNetwork.node[17].wlan.mac packetDropNotAddressToUs:sum(packetBytes) 0
attr interpolationmode none
attr recordingmode sum(packetBytes)
attr source packetDropReasonIsNotAddressedToUs(packetDropped)
attr title "packet drop: not addressed to us, sum(packetBytes)"
scalar WsnNetwork.node[17].wlan.mac packetDropIncorrectlyReceived:count 0
attr interpolationmode none
attr recordingmode count
attr source packetDropReasonIsIncorrectlyReceived(packetDropped)
attr title "packet drop: incorrectly received, count"
scalar WsnNetwork.node[17].wlan.mac packetDropIncorrectlyReceived:sum(packetBytes) 0
attr interpolationmode none
attr recordingmode sum(packetBytes)
attr source packetDropReasonIsIncorrectlyReceived(packetDropped)
attr title "packet drop: incorrectly received, sum(packetBytes)"
scalar WsnNetwork.node[17].wlan.mac packetDropQueueOverflow:count 0
attr interpolationmode none
attr recordingmode count
attr source packetDropReasonIsQueueOverflow(packetDropped)
attr title "packet drop: queue overflow, count"
scalar WsnNetwork.node[17].wlan.mac packetDropQueueOverflow:sum(packetBytes) 0
attr interpolationmode none
attr recordingmode sum(packetBytes)
attr source packetDropReasonIsQueueOverflow(packetDropped)
attr title "packet drop: queue overflow, sum(packetBytes)"
scalar WsnNetwork.node[17].wlan.mac packetDropRetryLimitReached:count 0
attr interpolationmode none
attr recordingmode count
attr source packetDropReasonIsRetryLimitReached(packetDropped)
attr title "packet drop: retry limit reached, count"
scalar WsnNetwork.node[17].wlan.mac packetDropRetryLimitReached:sum(packetBytes) 0
attr interpolationmode none
attr recordingmode sum(packetBytes)
attr source packetDropReasonIsRetryLimitReached(packetDropped)
attr title "packet drop: retry limit reached, sum(packetBytes)"
scalar WsnNetwork.node[17].wlan.mac packetDropBackoffLimitReached:count 0
attr interpolationmode none
attr recordingmode count
attr source packetDropReasonIsCongestion(packetDropped)
attr title "packet drop: backoff limit reached, count"
scalar WsnNetwork.node[17].wlan.mac packetDropBackoffLimitReached:sum(packetBytes) 0
attr interpolationmode none
attr recordingmode sum(packetBytes)
attr source packetDropReasonIsCongestion(packetDropped)
attr title "packet drop: backoff limit reached, sum(packetBytes)"
scalar WsnNetwork.node[17].wlan.mac linkBroken:count 0
attr interpolationmode none
attr recordingmode count
attr source linkBroken
attr title "link break, count"
par WsnNetwork.node[17].wlan.radio.antenna typename "\"inet.physicallayer.wireless.common.antenna.IsotropicAntenna\""
par WsnNetwork.node[17].wlan.radio.antenna mobilityModule "\"^.^.^.mobility\""
par WsnNetwork.node[17].wlan.radio.antenna numAntennas 1
par WsnNetwork.node[17].wlan.radio.transmitter typename "\"inet.physicallayer.wireless.ieee802154.packetlevel.Ieee802154NarrowbandScalarTransmitter\""
par WsnNetwork.node[17].wlan.radio.transmitter preambleDuration 0.000128s
attr unit s
par WsnNetwork.node[17].wlan.radio.transmitter headerLength 16b
attr unit b
par WsnNetwork.node[17].wlan.radio.transmitter bitrate 250000bps
attr unit bps
par WsnNetwork.node[17].wlan.radio.transmitter power 0.001W
attr unit W
par WsnNetwork.node[17].wlan.radio.transmitter centerFrequency 2.45e+09Hz
attr unit Hz
par WsnNetwork.node[17].wlan.radio.transmitter bandwidth 2.8e+06Hz
attr unit Hz
par WsnNetwork.node[17].wlan.radio.transmitter codeRate 1
par WsnNetwork.node[17].wlan.radio.transmitter modulation "\"DSSS-OQPSK-16\""
par WsnNetwork.node[17].wlan.radio.receiver.errorModel typename "\"inet.physicallayer.wireless.apsk.packetlevel.errormodel.ApskErrorModel\""
par WsnNetwork.node[17].wlan.radio.receiver.errorModel corruptionMode "\"packet\""
attr enum packet,chunk,byte,bit
par WsnNetwork.node[17].wlan.radio.receiver.errorModel snirMode "\"min\""
attr enum min,mean
par WsnNetwork.node[17].wlan.radio.receiver.errorModel snirOffset 0dB
attr unit dB
par WsnNetwork.node[17].wlan.radio.receiver typename "\"inet.physicallayer.wireless.ieee802154.packetlevel.Ieee802154NarrowbandScalarReceiver\""
par WsnNetwork.node[17].wlan.radio.receiver snirThreshold -8dB
attr unit dB
par WsnNetwork.node[17].wlan.radio.receiver snirThresholdMode "\"min\""
attr enum min,mean
par WsnNetwork.node[17].wlan.radio.receiver energyDetection -90dBm
attr unit dBm
par WsnNetwork.node[17].wlan.radio.receiver sensitivity -85dBm
attr unit dBm
par WsnNetwork.node[17].wlan.radio.receiver centerFrequency 2.45e+09Hz
attr unit Hz
par WsnNetwork.node[17].wlan.radio.receiver bandwidth 2.8e+06Hz
attr unit Hz
par WsnNetwork.node[17].wlan.radio.receiver modulation "\"DSSS-OQPSK-16\""
par WsnNetwork.node[17].wlan.radio.receiver minInterferencePower -120dBm
attr unit dBm
par WsnNetwork.node[17].wlan.radio typename "\"inet.physicallayer.wireless.ieee802154.packetlevel.Ieee802154NarrowbandScalarRadio\""
par WsnNetwork.node[17].wlan.radio radioMediumModule "\"radioMedium\""
par WsnNetwork.node[17].wlan.radio energySourceModule "\"\""
par WsnNetwork.node[17].wlan.radio initialRadioMode "\"off\""
attr enum off,sleep,receiver,transmitter,transceiver
par WsnNetwork.node[17].wlan.radio switchingTimes "\"ms 0 0 0 0 0 0 0 0 0 0 0 0 0 0 0 0 0 0 0 0 0 0 0 0 0\""
par WsnNetwork.node[17].wlan.radio sendRawBytes false
par WsnNetwork.node[17].wlan.radio separateTransmissionParts false
par WsnNetwork.node[17].wlan.radio separateReceptionParts false
par WsnNetwork.node[17].wlan.radio displayCommunicationRange false
par WsnNetwork.node[17].wlan.radio displayInterferenceRange false
par WsnNetwork.node[17].wlan.radio centerFrequency 2.45e+09Hz
attr unit Hz
par WsnNetwork.node[17].wlan.radio bandwidth 2.8e+06Hz
attr unit Hz
par WsnNetwork.node[17].wlan.radio signalAnalogRepresentation "\"scalar\""
attr enum scalar,dimensional
scalar WsnNetwork.node[17].wlan.radio radioMode:count 0
attr interpolationmode sample-hold
attr recordingmode count
attr source radioModeChanged
attr title "Radio mode, count"
scalar WsnNetwork.node[17].wlan.radio receptionState:count 0
attr interpolationmode sample-hold
attr recordingmode count
attr source receptionStateChanged
attr title "Radio reception state, count"
scalar WsnNetwork.node[17].wlan.radio transmissionState:count 0
attr interpolationmode sample-hold
attr recordingmode count
attr source transmissionStateChanged
attr title "Radio transmission state, count"
statistic WsnNetwork.node[17].wlan.radio minSnir:histogram
field count 0
field mean -nan
field stddev nan
field min nan
field max nan
field sum 0
field sqrsum 0
attr recordingmode histogram
attr source minimumSnir(packetSentToUpper)
attr title "Min SNIR"
bin	-inf	0
bin	0	0
bin	1	0
statistic WsnNetwork.node[17].wlan.radio packetErrorRate:histogram
field count 0
field mean -nan
field stddev nan
field min nan
field max nan
field sum 0
field sqrsum 0
attr recordingmode histogram
attr source packetErrorRate(packetSentToUpper)
attr title "Packet error rate"
bin	-inf	0
bin	0	0
bin	1	0
statistic WsnNetwork.node[17].wlan.radio bitErrorRate:histogram
field count 0
field mean -nan
field stddev nan
field min nan
field max nan
field sum 0
field sqrsum 0
attr recordingmode histogram
attr source bitErrorRate(packetSentToUpper)
attr title "Bit error rate"
bin	-inf	0
bin	0	0
bin	1	0
statistic WsnNetwork.node[17].wlan.radio symbolErrorRate:histogram
field count 0
field mean -nan
field stddev nan
field min nan
field max nan
field sum 0
field sqrsum 0
attr recordingmode histogram
attr source symbolErrorRate(packetSentToUpper)
attr title "Symbol error rate"
bin	-inf	0
bin	0	0
bin	1	0
par WsnNetwork.node[17].wlan typename "\"inet.linklayer.ieee802154.Ieee802154NarrowbandInterface\""
par WsnNetwork.node[17].wlan displayStringTextFormat "\"%a (%i)\\n%m\""
par WsnNetwork.node[17].wlan recordPcap false
par WsnNetwork.node[17].wlan numPcapRecorders 0
par WsnNetwork.node[17].wlan interfaceTableModule "\"^.interfaceTable\""
par WsnNetwork.node[17].wlan energySourceModule "\"\""
scalar WsnNetwork.node[17].wlan packetDropInterfaceDown:count 0
attr interpolationmode none
attr recordingmode count
attr source packetDropReasonIsInterfaceDown(packetDropped)
attr title "packet drops: interface down, count"
scalar WsnNetwork.node[17].wlan packetDropInterfaceDown:sum(packetBytes) 0
attr interpolationmode none
attr recordingmode sum(packetBytes)
attr source packetDropReasonIsInterfaceDown(packetDropped)
attr title "packet drops: interface down, sum(packetBytes)"
scalar WsnNetwork.node[17].wlan packetDropNoCarrier:count 0
attr interpolationmode none
attr recordingmode count
attr source packetDropReasonIsNoCarrier(packetDropped)
attr title "packet drops: no carrier, count"
scalar WsnNetwork.node[17].wlan packetDropNoCarrier:sum(packetBytes) 0
attr interpolationmode none
attr recordingmode sum(packetBytes)
attr source packetDropReasonIsNoCarrier(packetDropped)
attr title "packet drops: no carrier, sum(packetBytes)"
par WsnNetwork.node[17] typename "\"SensorNode\""
par WsnNetwork.node[17] routingProtocol "\"Pegasis\""
par WsnNetwork.node[17] initialJoules 18J
attr unit J
par WsnNetwork.node[17] radioTx_mA 17.4
par WsnNetwork.node[17] radioRx_mA 19.7
par WsnNetwork.node[17] sleep_mA 0.06
par WsnNetwork.node[17] supplyVoltage 3V
attr unit V
par WsnNetwork typename "\"WsnNetwork\""
par WsnNetwork numNodes 18
par WsnNetwork topologyType "\"clustered\""
par WsnNetwork activeProtocol "\"Leach\""
par WsnNetwork protocolA "\"leach\""
par WsnNetwork protocolB "\"pegasis\""
par WsnNetwork compareAB true

