                                                                
version 3
run Group5-17-20251203-11:15:20-87377
attr configname Group5
attr datetime 20251203-11:15:20
attr datetimef 20251203-111520
attr experiment Group5
attr inifile omnetpp.ini
attr iterationvars "$0=\"Pegasis\", $1=18"
attr iterationvarsd Pegasis/18
attr iterationvarsf Pegasis,18-
attr measurement "$0=\"Pegasis\", $1=18"
attr network WsnNetwork
attr processid 87377
attr repetition 2
attr replication #2
attr resultdir results
attr runnumber 17
attr seedset 22360
config image-path ../../inet4.5/images
config description "Clustered(2 clusters,18); LEACH vs PEGASIS"
config seed-set 22360
config network WsnNetwork
config **.numNodes 18
config **.topologyType "\"clustered\""
config **.radio.txRange "\"35m\""
config **.mobility.initFromDisplayString false
config **.node[0..8].mobility.initialX "uniform(70m, 130m)"
config **.node[0..8].mobility.initialY "uniform(70m, 130m)"
config **.node[9..17].mobility.initialX "uniform(270m, 330m)"
config **.node[9..17].mobility.initialY "uniform(70m, 130m)"
config **.baseStation.mobility.initialX 200m
config **.baseStation.mobility.initialY 300m
config *.activeProtocol "\"Pegasis\""
config **.routing.percentage 0.2
config **.radioMedium.maxTransmissionDuration 100s
config **.app.traffic "\"constant\""
config **.app.packetInterval 0.9s
config **.app.payloadBytes 64B
config **.node[*].initialJoules 18J
config **.node[*].radioTx_mA 17.4
config **.node[*].radioRx_mA 19.7
config **.node[*].sleep_mA 0.06
config **.node[*].supplyVoltage 3.0V
config **.wlan.interfaceTableModule "\"^.interfaceTable\""
config **.wlan.radio.antenna.mobilityModule "\"^.^.^.mobility\""
config **.wlan.radio.energyConsumer.energySourceModule "\"^.^.^.energyStorage\""
config **.wlan.radio.typename Ieee802154NarrowbandScalarRadio
config **.wlan.radio.antenna.typename IsotropicAntenna
config **.wlan.radio.transmitter.power 100mW
config **.wlan.radio.receiver.sensitivity -85dBm
config **.baseStation.wlan.radio.energyConsumer.typename StateBasedEpEnergyConsumer
config **.baseStation.wlan.radio.energyConsumer.offPowerConsumption 0mW
config **.baseStation.wlan.radio.energyConsumer.sleepPowerConsumption 0mW
config **.baseStation.wlan.radio.energyConsumer.receiverIdlePowerConsumption 0mW
config **.baseStation.wlan.radio.energyConsumer.receiverBusyPowerConsumption 0mW
config **.baseStation.wlan.radio.energyConsumer.receiverReceivingPowerConsumption 0mW
config **.baseStation.wlan.radio.energyConsumer.transmitterTransmittingPowerConsumption 0mW
config **.node[*].wlan.radio.energyConsumer.typename StateBasedEpEnergyConsumer
config **.node[*].wlan.radio.energyConsumer.offPowerConsumption 0mW
config **.node[*].wlan.radio.energyConsumer.sleepPowerConsumption 0.18mW
config **.node[*].wlan.radio.energyConsumer.receiverIdlePowerConsumption 0.18mW
config **.node[*].wlan.radio.energyConsumer.receiverBusyPowerConsumption 59.1mW
config **.node[*].wlan.radio.energyConsumer.receiverReceivingPowerConsumption 59.1mW
config **.node[*].wlan.radio.energyConsumer.transmitterTransmittingPowerConsumption 52.2mW
config output-scalar-file results/group5-Group5-17.sca
config output-vector-file results/group5-Group5-17.vec
config **.scalar-recording true
config **.vector-recording true
config **.stat.pdr true
config **.stat.delay true
config **.stat.residualEnergy true
config **.groupId 5
config **.groupKey "\"22360-5\""
config sim-time-limit 1800s
config repeat 3
config warmup-period 60s
config rng-class cMersenneTwister

vector 0 WsnNetwork.baseStation.energyStorage powerConsumption:vector ETV
attr interpolationmode sample-hold
attr recordingmode vector
attr source powerConsumptionChanged
attr title "Power consumption"
attr unit W
vector 1 WsnNetwork.baseStation.energyStorage powerGeneration:vector ETV
attr interpolationmode sample-hold
attr recordingmode vector
attr source powerGenerationChanged
attr title "Power generation"
attr unit W
vector 2 WsnNetwork.baseStation.energyStorage residualEnergyCapacity:vector ETV
attr interpolationmode linear
attr recordingmode vector
attr source residualEnergyCapacityChanged
attr title "Residual energy capacity"
attr unit J
vector 3 WsnNetwork.baseStation.routing packetReceived:vector ETV
attr recordingmode vector
vector 4 WsnNetwork.baseStation.routing endToEndDelay:vector ETV
attr recordingmode vector
vector 5 WsnNetwork.baseStation.wlan.queue queueLength:vector ETV
attr autoWarmupFilter false
attr interpolationmode sample-hold
attr recordingmode vector
attr source "warmup(atomic(constant0(packetPushEnded) + count(packetPushStarted) - count(packetPulled) - count(packetRemoved) - count(packetDropped)))"
attr title "queue length"
attr unit pk
vector 6 WsnNetwork.baseStation.wlan.queue queueBitLength:vector ETV
attr autoWarmupFilter false
attr interpolationmode sample-hold
attr recordingmode vector
attr source "warmup(atomic(constant0(packetPushEnded) + sum(packetLength(packetPushStarted)) - sum(packetLength(packetPulled)) - sum(packetLength(packetRemoved)) - sum(packetLength(packetDropped))))"
attr title "queue bit length"
attr unit b
vector 7 WsnNetwork.baseStation.wlan.queue queueingTime:vector ETV
attr interpolationmode none
attr recordingmode vector
attr source queueingTime(packetPulled)
attr title "queueing times"
attr unit s
vector 8 WsnNetwork.baseStation.wlan.queue incomingPacketLengths:vector ETV
attr interpolationmode none
attr recordingmode vector
attr source packetLength(packetPushStarted)
attr title "incoming packet lengths"
attr unit b
vector 9 WsnNetwork.baseStation.wlan.queue incomingDataRate:vector ETV
attr interpolationmode linear
attr recordingmode vector
attr source throughput(packetPushStarted)
attr title "incoming datarate"
attr unit bps
vector 10 WsnNetwork.baseStation.wlan.queue outgoingPacketLengths:vector ETV
attr interpolationmode none
attr recordingmode vector
attr source packetLength(packetPulled)
attr title "outgoing packet lengths"
attr unit b
vector 11 WsnNetwork.baseStation.wlan.queue outgoingDataRate:vector ETV
attr interpolationmode linear
attr recordingmode vector
attr source throughput(packetPulled)
attr title "outgoing datarate"
attr unit bps
vector 12 WsnNetwork.baseStation.wlan.queue droppedPacketLengthsQueueOverflow:vector ETV
attr interpolationmode none
attr recordingmode vector
attr source packetLength(packetDropReasonIsQueueOverflow(packetDropped))
attr title "dropped packet lengths: queue overflow"
attr unit b
vector 13 WsnNetwork.baseStation.wlan.queue flowQueueingTime:vector ETV
attr interpolationmode none
attr recordingmode vector
attr source queueingTime(demuxFlow(packetPulled))
attr title "flow queueing times"
attr unit s
vector 14 WsnNetwork.baseStation.wlan.queue flowIncomingDataRate:vector ETV
attr interpolationmode linear
attr recordingmode vector
attr source throughput(flowPacketLength(demuxFlow(packetPushStarted)))
attr title "flow specific incoming data rate"
attr unit bps
vector 15 WsnNetwork.baseStation.wlan.queue flowOutgoingDataRate:vector ETV
attr interpolationmode linear
attr recordingmode vector
attr source throughput(flowPacketLength(demuxFlow(packetPulled)))
attr title "flow specific outgoing data rate"
attr unit bps
vector 16 WsnNetwork.baseStation.wlan.mac packetDropNotAddressToUs:vector(packetBytes) ETV
attr interpolationmode none
attr recordingmode vector(packetBytes)
attr source packetDropReasonIsNotAddressedToUs(packetDropped)
attr title "packet drop: not addressed to us, packetBytes"
vector 17 WsnNetwork.baseStation.wlan.mac packetDropIncorrectlyReceived:vector(packetBytes) ETV
attr interpolationmode none
attr recordingmode vector(packetBytes)
attr source packetDropReasonIsIncorrectlyReceived(packetDropped)
attr title "packet drop: incorrectly received, packetBytes"
vector 18 WsnNetwork.baseStation.wlan.mac packetDropQueueOverflow:vector(packetBytes) ETV
attr interpolationmode none
attr recordingmode vector(packetBytes)
attr source packetDropReasonIsQueueOverflow(packetDropped)
attr title "packet drop: queue overflow, packetBytes"
vector 19 WsnNetwork.baseStation.wlan.mac packetDropRetryLimitReached:vector(packetBytes) ETV
attr interpolationmode none
attr recordingmode vector(packetBytes)
attr source packetDropReasonIsRetryLimitReached(packetDropped)
attr title "packet drop: retry limit reached, packetBytes"
vector 20 WsnNetwork.baseStation.wlan.mac packetDropBackoffLimitReached:vector(packetBytes) ETV
attr interpolationmode none
attr recordingmode vector(packetBytes)
attr source packetDropReasonIsCongestion(packetDropped)
attr title "packet drop: backoff limit reached, packetBytes"
vector 21 WsnNetwork.baseStation.wlan.radio.energyConsumer powerConsumption:vector ETV
attr interpolationmode sample-hold
attr recordingmode vector
attr source powerConsumptionChanged
attr title "Power consumption"
attr unit W
vector 22 WsnNetwork.baseStation.wlan.radio radioMode:vector ETV
attr interpolationmode sample-hold
attr recordingmode vector
attr source radioModeChanged
attr title "Radio mode"
vector 23 WsnNetwork.baseStation.wlan.radio receptionState:vector ETV
attr interpolationmode sample-hold
attr recordingmode vector
attr source receptionStateChanged
attr title "Radio reception state"
vector 24 WsnNetwork.baseStation.wlan.radio transmissionState:vector ETV
attr interpolationmode sample-hold
attr recordingmode vector
attr source transmissionStateChanged
attr title "Radio transmission state"
vector 25 WsnNetwork.baseStation.wlan packetDropInterfaceDown:vector(packetBytes) ETV
attr interpolationmode none
attr recordingmode vector(packetBytes)
attr source packetDropReasonIsInterfaceDown(packetDropped)
attr title "packet drops: interface down, packetBytes"
vector 26 WsnNetwork.baseStation.wlan packetDropNoCarrier:vector(packetBytes) ETV
attr interpolationmode none
attr recordingmode vector(packetBytes)
attr source packetDropReasonIsNoCarrier(packetDropped)
attr title "packet drops: no carrier, packetBytes"
vector 27 WsnNetwork.node[0].energyStorage powerConsumption:vector ETV
attr interpolationmode sample-hold
attr recordingmode vector
attr source powerConsumptionChanged
attr title "Power consumption"
attr unit W
vector 28 WsnNetwork.node[0].energyStorage powerGeneration:vector ETV
attr interpolationmode sample-hold
attr recordingmode vector
attr source powerGenerationChanged
attr title "Power generation"
attr unit W
vector 29 WsnNetwork.node[0].energyStorage residualEnergyCapacity:vector ETV
attr interpolationmode linear
attr recordingmode vector
attr source residualEnergyCapacityChanged
attr title "Residual energy capacity"
attr unit J
vector 30 WsnNetwork.node[0].app packetSent:vector ETV
attr recordingmode vector
vector 31 WsnNetwork.node[0].routing packetReceived:vector ETV
attr recordingmode vector
vector 32 WsnNetwork.node[0].routing endToEndDelay:vector ETV
attr recordingmode vector
vector 33 WsnNetwork.node[0].wlan.queue queueLength:vector ETV
attr autoWarmupFilter false
attr interpolationmode sample-hold
attr recordingmode vector
attr source "warmup(atomic(constant0(packetPushEnded) + count(packetPushStarted) - count(packetPulled) - count(packetRemoved) - count(packetDropped)))"
attr title "queue length"
attr unit pk
vector 34 WsnNetwork.node[0].wlan.queue queueBitLength:vector ETV
attr autoWarmupFilter false
attr interpolationmode sample-hold
attr recordingmode vector
attr source "warmup(atomic(constant0(packetPushEnded) + sum(packetLength(packetPushStarted)) - sum(packetLength(packetPulled)) - sum(packetLength(packetRemoved)) - sum(packetLength(packetDropped))))"
attr title "queue bit length"
attr unit b
vector 35 WsnNetwork.node[0].wlan.queue queueingTime:vector ETV
attr interpolationmode none
attr recordingmode vector
attr source queueingTime(packetPulled)
attr title "queueing times"
attr unit s
vector 36 WsnNetwork.node[0].wlan.queue incomingPacketLengths:vector ETV
attr interpolationmode none
attr recordingmode vector
attr source packetLength(packetPushStarted)
attr title "incoming packet lengths"
attr unit b
vector 37 WsnNetwork.node[0].wlan.queue incomingDataRate:vector ETV
attr interpolationmode linear
attr recordingmode vector
attr source throughput(packetPushStarted)
attr title "incoming datarate"
attr unit bps
vector 38 WsnNetwork.node[0].wlan.queue outgoingPacketLengths:vector ETV
attr interpolationmode none
attr recordingmode vector
attr source packetLength(packetPulled)
attr title "outgoing packet lengths"
attr unit b
vector 39 WsnNetwork.node[0].wlan.queue outgoingDataRate:vector ETV
attr interpolationmode linear
attr recordingmode vector
attr source throughput(packetPulled)
attr title "outgoing datarate"
attr unit bps
vector 40 WsnNetwork.node[0].wlan.queue droppedPacketLengthsQueueOverflow:vector ETV
attr interpolationmode none
attr recordingmode vector
attr source packetLength(packetDropReasonIsQueueOverflow(packetDropped))
attr title "dropped packet lengths: queue overflow"
attr unit b
vector 41 WsnNetwork.node[0].wlan.queue flowQueueingTime:vector ETV
attr interpolationmode none
attr recordingmode vector
attr source queueingTime(demuxFlow(packetPulled))
attr title "flow queueing times"
attr unit s
vector 42 WsnNetwork.node[0].wlan.queue flowIncomingDataRate:vector ETV
attr interpolationmode linear
attr recordingmode vector
attr source throughput(flowPacketLength(demuxFlow(packetPushStarted)))
attr title "flow specific incoming data rate"
attr unit bps
vector 43 WsnNetwork.node[0].wlan.queue flowOutgoingDataRate:vector ETV
attr interpolationmode linear
attr recordingmode vector
attr source throughput(flowPacketLength(demuxFlow(packetPulled)))
attr title "flow specific outgoing data rate"
attr unit bps
vector 44 WsnNetwork.node[0].wlan.mac packetDropNotAddressToUs:vector(packetBytes) ETV
attr interpolationmode none
attr recordingmode vector(packetBytes)
attr source packetDropReasonIsNotAddressedToUs(packetDropped)
attr title "packet drop: not addressed to us, packetBytes"
vector 45 WsnNetwork.node[0].wlan.mac packetDropIncorrectlyReceived:vector(packetBytes) ETV
attr interpolationmode none
attr recordingmode vector(packetBytes)
attr source packetDropReasonIsIncorrectlyReceived(packetDropped)
attr title "packet drop: incorrectly received, packetBytes"
vector 46 WsnNetwork.node[0].wlan.mac packetDropQueueOverflow:vector(packetBytes) ETV
attr interpolationmode none
attr recordingmode vector(packetBytes)
attr source packetDropReasonIsQueueOverflow(packetDropped)
attr title "packet drop: queue overflow, packetBytes"
vector 47 WsnNetwork.node[0].wlan.mac packetDropRetryLimitReached:vector(packetBytes) ETV
attr interpolationmode none
attr recordingmode vector(packetBytes)
attr source packetDropReasonIsRetryLimitReached(packetDropped)
attr title "packet drop: retry limit reached, packetBytes"
vector 48 WsnNetwork.node[0].wlan.mac packetDropBackoffLimitReached:vector(packetBytes) ETV
attr interpolationmode none
attr recordingmode vector(packetBytes)
attr source packetDropReasonIsCongestion(packetDropped)
attr title "packet drop: backoff limit reached, packetBytes"
vector 49 WsnNetwork.node[0].wlan.radio.energyConsumer powerConsumption:vector ETV
attr interpolationmode sample-hold
attr recordingmode vector
attr source powerConsumptionChanged
attr title "Power consumption"
attr unit W
vector 50 WsnNetwork.node[0].wlan.radio radioMode:vector ETV
attr interpolationmode sample-hold
attr recordingmode vector
attr source radioModeChanged
attr title "Radio mode"
vector 51 WsnNetwork.node[0].wlan.radio receptionState:vector ETV
attr interpolationmode sample-hold
attr recordingmode vector
attr source receptionStateChanged
attr title "Radio reception state"
vector 52 WsnNetwork.node[0].wlan.radio transmissionState:vector ETV
attr interpolationmode sample-hold
attr recordingmode vector
attr source transmissionStateChanged
attr title "Radio transmission state"
vector 53 WsnNetwork.node[0].wlan packetDropInterfaceDown:vector(packetBytes) ETV
attr interpolationmode none
attr recordingmode vector(packetBytes)
attr source packetDropReasonIsInterfaceDown(packetDropped)
attr title "packet drops: interface down, packetBytes"
vector 54 WsnNetwork.node[0].wlan packetDropNoCarrier:vector(packetBytes) ETV
attr interpolationmode none
attr recordingmode vector(packetBytes)
attr source packetDropReasonIsNoCarrier(packetDropped)
attr title "packet drops: no carrier, packetBytes"
vector 55 WsnNetwork.node[1].energyStorage powerConsumption:vector ETV
attr interpolationmode sample-hold
attr recordingmode vector
attr source powerConsumptionChanged
attr title "Power consumption"
attr unit W
vector 56 WsnNetwork.node[1].energyStorage powerGeneration:vector ETV
attr interpolationmode sample-hold
attr recordingmode vector
attr source powerGenerationChanged
attr title "Power generation"
attr unit W
vector 57 WsnNetwork.node[1].energyStorage residualEnergyCapacity:vector ETV
attr interpolationmode linear
attr recordingmode vector
attr source residualEnergyCapacityChanged
attr title "Residual energy capacity"
attr unit J
vector 58 WsnNetwork.node[1].app packetSent:vector ETV
attr recordingmode vector
vector 59 WsnNetwork.node[1].routing packetReceived:vector ETV
attr recordingmode vector
vector 60 WsnNetwork.node[1].routing endToEndDelay:vector ETV
attr recordingmode vector
vector 61 WsnNetwork.node[1].wlan.queue queueLength:vector ETV
attr autoWarmupFilter false
attr interpolationmode sample-hold
attr recordingmode vector
attr source "warmup(atomic(constant0(packetPushEnded) + count(packetPushStarted) - count(packetPulled) - count(packetRemoved) - count(packetDropped)))"
attr title "queue length"
attr unit pk
vector 62 WsnNetwork.node[1].wlan.queue queueBitLength:vector ETV
attr autoWarmupFilter false
attr interpolationmode sample-hold
attr recordingmode vector
attr source "warmup(atomic(constant0(packetPushEnded) + sum(packetLength(packetPushStarted)) - sum(packetLength(packetPulled)) - sum(packetLength(packetRemoved)) - sum(packetLength(packetDropped))))"
attr title "queue bit length"
attr unit b
vector 63 WsnNetwork.node[1].wlan.queue queueingTime:vector ETV
attr interpolationmode none
attr recordingmode vector
attr source queueingTime(packetPulled)
attr title "queueing times"
attr unit s
vector 64 WsnNetwork.node[1].wlan.queue incomingPacketLengths:vector ETV
attr interpolationmode none
attr recordingmode vector
attr source packetLength(packetPushStarted)
attr title "incoming packet lengths"
attr unit b
vector 65 WsnNetwork.node[1].wlan.queue incomingDataRate:vector ETV
attr interpolationmode linear
attr recordingmode vector
attr source throughput(packetPushStarted)
attr title "incoming datarate"
attr unit bps
vector 66 WsnNetwork.node[1].wlan.queue outgoingPacketLengths:vector ETV
attr interpolationmode none
attr recordingmode vector
attr source packetLength(packetPulled)
attr title "outgoing packet lengths"
attr unit b
vector 67 WsnNetwork.node[1].wlan.queue outgoingDataRate:vector ETV
attr interpolationmode linear
attr recordingmode vector
attr source throughput(packetPulled)
attr title "outgoing datarate"
attr unit bps
vector 68 WsnNetwork.node[1].wlan.queue droppedPacketLengthsQueueOverflow:vector ETV
attr interpolationmode none
attr recordingmode vector
attr source packetLength(packetDropReasonIsQueueOverflow(packetDropped))
attr title "dropped packet lengths: queue overflow"
attr unit b
vector 69 WsnNetwork.node[1].wlan.queue flowQueueingTime:vector ETV
attr interpolationmode none
attr recordingmode vector
attr source queueingTime(demuxFlow(packetPulled))
attr title "flow queueing times"
attr unit s
vector 70 WsnNetwork.node[1].wlan.queue flowIncomingDataRate:vector ETV
attr interpolationmode linear
attr recordingmode vector
attr source throughput(flowPacketLength(demuxFlow(packetPushStarted)))
attr title "flow specific incoming data rate"
attr unit bps
vector 71 WsnNetwork.node[1].wlan.queue flowOutgoingDataRate:vector ETV
attr interpolationmode linear
attr recordingmode vector
attr source throughput(flowPacketLength(demuxFlow(packetPulled)))
attr title "flow specific outgoing data rate"
attr unit bps
vector 72 WsnNetwork.node[1].wlan.mac packetDropNotAddressToUs:vector(packetBytes) ETV
attr interpolationmode none
attr recordingmode vector(packetBytes)
attr source packetDropReasonIsNotAddressedToUs(packetDropped)
attr title "packet drop: not addressed to us, packetBytes"
vector 73 WsnNetwork.node[1].wlan.mac packetDropIncorrectlyReceived:vector(packetBytes) ETV
attr interpolationmode none
attr recordingmode vector(packetBytes)
attr source packetDropReasonIsIncorrectlyReceived(packetDropped)
attr title "packet drop: incorrectly received, packetBytes"
vector 74 WsnNetwork.node[1].wlan.mac packetDropQueueOverflow:vector(packetBytes) ETV
attr interpolationmode none
attr recordingmode vector(packetBytes)
attr source packetDropReasonIsQueueOverflow(packetDropped)
attr title "packet drop: queue overflow, packetBytes"
vector 75 WsnNetwork.node[1].wlan.mac packetDropRetryLimitReached:vector(packetBytes) ETV
attr interpolationmode none
attr recordingmode vector(packetBytes)
attr source packetDropReasonIsRetryLimitReached(packetDropped)
attr title "packet drop: retry limit reached, packetBytes"
vector 76 WsnNetwork.node[1].wlan.mac packetDropBackoffLimitReached:vector(packetBytes) ETV
attr interpolationmode none
attr recordingmode vector(packetBytes)
attr source packetDropReasonIsCongestion(packetDropped)
attr title "packet drop: backoff limit reached, packetBytes"
vector 77 WsnNetwork.node[1].wlan.radio.energyConsumer powerConsumption:vector ETV
attr interpolationmode sample-hold
attr recordingmode vector
attr source powerConsumptionChanged
attr title "Power consumption"
attr unit W
vector 78 WsnNetwork.node[1].wlan.radio radioMode:vector ETV
attr interpolationmode sample-hold
attr recordingmode vector
attr source radioModeChanged
attr title "Radio mode"
vector 79 WsnNetwork.node[1].wlan.radio receptionState:vector ETV
attr interpolationmode sample-hold
attr recordingmode vector
attr source receptionStateChanged
attr title "Radio reception state"
vector 80 WsnNetwork.node[1].wlan.radio transmissionState:vector ETV
attr interpolationmode sample-hold
attr recordingmode vector
attr source transmissionStateChanged
attr title "Radio transmission state"
vector 81 WsnNetwork.node[1].wlan packetDropInterfaceDown:vector(packetBytes) ETV
attr interpolationmode none
attr recordingmode vector(packetBytes)
attr source packetDropReasonIsInterfaceDown(packetDropped)
attr title "packet drops: interface down, packetBytes"
vector 82 WsnNetwork.node[1].wlan packetDropNoCarrier:vector(packetBytes) ETV
attr interpolationmode none
attr recordingmode vector(packetBytes)
attr source packetDropReasonIsNoCarrier(packetDropped)
attr title "packet drops: no carrier, packetBytes"
vector 83 WsnNetwork.node[2].energyStorage powerConsumption:vector ETV
attr interpolationmode sample-hold
attr recordingmode vector
attr source powerConsumptionChanged
attr title "Power consumption"
attr unit W
vector 84 WsnNetwork.node[2].energyStorage powerGeneration:vector ETV
attr interpolationmode sample-hold
attr recordingmode vector
attr source powerGenerationChanged
attr title "Power generation"
attr unit W
vector 85 WsnNetwork.node[2].energyStorage residualEnergyCapacity:vector ETV
attr interpolationmode linear
attr recordingmode vector
attr source residualEnergyCapacityChanged
attr title "Residual energy capacity"
attr unit J
vector 86 WsnNetwork.node[2].app packetSent:vector ETV
attr recordingmode vector
vector 87 WsnNetwork.node[2].routing packetReceived:vector ETV
attr recordingmode vector
vector 88 WsnNetwork.node[2].routing endToEndDelay:vector ETV
attr recordingmode vector
vector 89 WsnNetwork.node[2].wlan.queue queueLength:vector ETV
attr autoWarmupFilter false
attr interpolationmode sample-hold
attr recordingmode vector
attr source "warmup(atomic(constant0(packetPushEnded) + count(packetPushStarted) - count(packetPulled) - count(packetRemoved) - count(packetDropped)))"
attr title "queue length"
attr unit pk
vector 90 WsnNetwork.node[2].wlan.queue queueBitLength:vector ETV
attr autoWarmupFilter false
attr interpolationmode sample-hold
attr recordingmode vector
attr source "warmup(atomic(constant0(packetPushEnded) + sum(packetLength(packetPushStarted)) - sum(packetLength(packetPulled)) - sum(packetLength(packetRemoved)) - sum(packetLength(packetDropped))))"
attr title "queue bit length"
attr unit b
vector 91 WsnNetwork.node[2].wlan.queue queueingTime:vector ETV
attr interpolationmode none
attr recordingmode vector
attr source queueingTime(packetPulled)
attr title "queueing times"
attr unit s
vector 92 WsnNetwork.node[2].wlan.queue incomingPacketLengths:vector ETV
attr interpolationmode none
attr recordingmode vector
attr source packetLength(packetPushStarted)
attr title "incoming packet lengths"
attr unit b
vector 93 WsnNetwork.node[2].wlan.queue incomingDataRate:vector ETV
attr interpolationmode linear
attr recordingmode vector
attr source throughput(packetPushStarted)
attr title "incoming datarate"
attr unit bps
vector 94 WsnNetwork.node[2].wlan.queue outgoingPacketLengths:vector ETV
attr interpolationmode none
attr recordingmode vector
attr source packetLength(packetPulled)
attr title "outgoing packet lengths"
attr unit b
vector 95 WsnNetwork.node[2].wlan.queue outgoingDataRate:vector ETV
attr interpolationmode linear
attr recordingmode vector
attr source throughput(packetPulled)
attr title "outgoing datarate"
attr unit bps
vector 96 WsnNetwork.node[2].wlan.queue droppedPacketLengthsQueueOverflow:vector ETV
attr interpolationmode none
attr recordingmode vector
attr source packetLength(packetDropReasonIsQueueOverflow(packetDropped))
attr title "dropped packet lengths: queue overflow"
attr unit b
vector 97 WsnNetwork.node[2].wlan.queue flowQueueingTime:vector ETV
attr interpolationmode none
attr recordingmode vector
attr source queueingTime(demuxFlow(packetPulled))
attr title "flow queueing times"
attr unit s
vector 98 WsnNetwork.node[2].wlan.queue flowIncomingDataRate:vector ETV
attr interpolationmode linear
attr recordingmode vector
attr source throughput(flowPacketLength(demuxFlow(packetPushStarted)))
attr title "flow specific incoming data rate"
attr unit bps
vector 99 WsnNetwork.node[2].wlan.queue flowOutgoingDataRate:vector ETV
attr interpolationmode linear
attr recordingmode vector
attr source throughput(flowPacketLength(demuxFlow(packetPulled)))
attr title "flow specific outgoing data rate"
attr unit bps
vector 100 WsnNetwork.node[2].wlan.mac packetDropNotAddressToUs:vector(packetBytes) ETV
attr interpolationmode none
attr recordingmode vector(packetBytes)
attr source packetDropReasonIsNotAddressedToUs(packetDropped)
attr title "packet drop: not addressed to us, packetBytes"
vector 101 WsnNetwork.node[2].wlan.mac packetDropIncorrectlyReceived:vector(packetBytes) ETV
attr interpolationmode none
attr recordingmode vector(packetBytes)
attr source packetDropReasonIsIncorrectlyReceived(packetDropped)
attr title "packet drop: incorrectly received, packetBytes"
vector 102 WsnNetwork.node[2].wlan.mac packetDropQueueOverflow:vector(packetBytes) ETV
attr interpolationmode none
attr recordingmode vector(packetBytes)
attr source packetDropReasonIsQueueOverflow(packetDropped)
attr title "packet drop: queue overflow, packetBytes"
vector 103 WsnNetwork.node[2].wlan.mac packetDropRetryLimitReached:vector(packetBytes) ETV
attr interpolationmode none
attr recordingmode vector(packetBytes)
attr source packetDropReasonIsRetryLimitReached(packetDropped)
attr title "packet drop: retry limit reached, packetBytes"
vector 104 WsnNetwork.node[2].wlan.mac packetDropBackoffLimitReached:vector(packetBytes) ETV
attr interpolationmode none
attr recordingmode vector(packetBytes)
attr source packetDropReasonIsCongestion(packetDropped)
attr title "packet drop: backoff limit reached, packetBytes"
vector 105 WsnNetwork.node[2].wlan.radio.energyConsumer powerConsumption:vector ETV
attr interpolationmode sample-hold
attr recordingmode vector
attr source powerConsumptionChanged
attr title "Power consumption"
attr unit W
vector 106 WsnNetwork.node[2].wlan.radio radioMode:vector ETV
attr interpolationmode sample-hold
attr recordingmode vector
attr source radioModeChanged
attr title "Radio mode"
vector 107 WsnNetwork.node[2].wlan.radio receptionState:vector ETV
attr interpolationmode sample-hold
attr recordingmode vector
attr source receptionStateChanged
attr title "Radio reception state"
vector 108 WsnNetwork.node[2].wlan.radio transmissionState:vector ETV
attr interpolationmode sample-hold
attr recordingmode vector
attr source transmissionStateChanged
attr title "Radio transmission state"
vector 109 WsnNetwork.node[2].wlan packetDropInterfaceDown:vector(packetBytes) ETV
attr interpolationmode none
attr recordingmode vector(packetBytes)
attr source packetDropReasonIsInterfaceDown(packetDropped)
attr title "packet drops: interface down, packetBytes"
vector 110 WsnNetwork.node[2].wlan packetDropNoCarrier:vector(packetBytes) ETV
attr interpolationmode none
attr recordingmode vector(packetBytes)
attr source packetDropReasonIsNoCarrier(packetDropped)
attr title "packet drops: no carrier, packetBytes"
vector 111 WsnNetwork.node[3].energyStorage powerConsumption:vector ETV
attr interpolationmode sample-hold
attr recordingmode vector
attr source powerConsumptionChanged
attr title "Power consumption"
attr unit W
vector 112 WsnNetwork.node[3].energyStorage powerGeneration:vector ETV
attr interpolationmode sample-hold
attr recordingmode vector
attr source powerGenerationChanged
attr title "Power generation"
attr unit W
vector 113 WsnNetwork.node[3].energyStorage residualEnergyCapacity:vector ETV
attr interpolationmode linear
attr recordingmode vector
attr source residualEnergyCapacityChanged
attr title "Residual energy capacity"
attr unit J
vector 114 WsnNetwork.node[3].app packetSent:vector ETV
attr recordingmode vector
vector 115 WsnNetwork.node[3].routing packetReceived:vector ETV
attr recordingmode vector
vector 116 WsnNetwork.node[3].routing endToEndDelay:vector ETV
attr recordingmode vector
vector 117 WsnNetwork.node[3].wlan.queue queueLength:vector ETV
attr autoWarmupFilter false
attr interpolationmode sample-hold
attr recordingmode vector
attr source "warmup(atomic(constant0(packetPushEnded) + count(packetPushStarted) - count(packetPulled) - count(packetRemoved) - count(packetDropped)))"
attr title "queue length"
attr unit pk
vector 118 WsnNetwork.node[3].wlan.queue queueBitLength:vector ETV
attr autoWarmupFilter false
attr interpolationmode sample-hold
attr recordingmode vector
attr source "warmup(atomic(constant0(packetPushEnded) + sum(packetLength(packetPushStarted)) - sum(packetLength(packetPulled)) - sum(packetLength(packetRemoved)) - sum(packetLength(packetDropped))))"
attr title "queue bit length"
attr unit b
vector 119 WsnNetwork.node[3].wlan.queue queueingTime:vector ETV
attr interpolationmode none
attr recordingmode vector
attr source queueingTime(packetPulled)
attr title "queueing times"
attr unit s
vector 120 WsnNetwork.node[3].wlan.queue incomingPacketLengths:vector ETV
attr interpolationmode none
attr recordingmode vector
attr source packetLength(packetPushStarted)
attr title "incoming packet lengths"
attr unit b
vector 121 WsnNetwork.node[3].wlan.queue incomingDataRate:vector ETV
attr interpolationmode linear
attr recordingmode vector
attr source throughput(packetPushStarted)
attr title "incoming datarate"
attr unit bps
vector 122 WsnNetwork.node[3].wlan.queue outgoingPacketLengths:vector ETV
attr interpolationmode none
attr recordingmode vector
attr source packetLength(packetPulled)
attr title "outgoing packet lengths"
attr unit b
vector 123 WsnNetwork.node[3].wlan.queue outgoingDataRate:vector ETV
attr interpolationmode linear
attr recordingmode vector
attr source throughput(packetPulled)
attr title "outgoing datarate"
attr unit bps
vector 124 WsnNetwork.node[3].wlan.queue droppedPacketLengthsQueueOverflow:vector ETV
attr interpolationmode none
attr recordingmode vector
attr source packetLength(packetDropReasonIsQueueOverflow(packetDropped))
attr title "dropped packet lengths: queue overflow"
attr unit b
vector 125 WsnNetwork.node[3].wlan.queue flowQueueingTime:vector ETV
attr interpolationmode none
attr recordingmode vector
attr source queueingTime(demuxFlow(packetPulled))
attr title "flow queueing times"
attr unit s
vector 126 WsnNetwork.node[3].wlan.queue flowIncomingDataRate:vector ETV
attr interpolationmode linear
attr recordingmode vector
attr source throughput(flowPacketLength(demuxFlow(packetPushStarted)))
attr title "flow specific incoming data rate"
attr unit bps
vector 127 WsnNetwork.node[3].wlan.queue flowOutgoingDataRate:vector ETV
attr interpolationmode linear
attr recordingmode vector
attr source throughput(flowPacketLength(demuxFlow(packetPulled)))
attr title "flow specific outgoing data rate"
attr unit bps
vector 128 WsnNetwork.node[3].wlan.mac packetDropNotAddressToUs:vector(packetBytes) ETV
attr interpolationmode none
attr recordingmode vector(packetBytes)
attr source packetDropReasonIsNotAddressedToUs(packetDropped)
attr title "packet drop: not addressed to us, packetBytes"
vector 129 WsnNetwork.node[3].wlan.mac packetDropIncorrectlyReceived:vector(packetBytes) ETV
attr interpolationmode none
attr recordingmode vector(packetBytes)
attr source packetDropReasonIsIncorrectlyReceived(packetDropped)
attr title "packet drop: incorrectly received, packetBytes"
vector 130 WsnNetwork.node[3].wlan.mac packetDropQueueOverflow:vector(packetBytes) ETV
attr interpolationmode none
attr recordingmode vector(packetBytes)
attr source packetDropReasonIsQueueOverflow(packetDropped)
attr title "packet drop: queue overflow, packetBytes"
vector 131 WsnNetwork.node[3].wlan.mac packetDropRetryLimitReached:vector(packetBytes) ETV
attr interpolationmode none
attr recordingmode vector(packetBytes)
attr source packetDropReasonIsRetryLimitReached(packetDropped)
attr title "packet drop: retry limit reached, packetBytes"
vector 132 WsnNetwork.node[3].wlan.mac packetDropBackoffLimitReached:vector(packetBytes) ETV
attr interpolationmode none
attr recordingmode vector(packetBytes)
attr source packetDropReasonIsCongestion(packetDropped)
attr title "packet drop: backoff limit reached, packetBytes"
vector 133 WsnNetwork.node[3].wlan.radio.energyConsumer powerConsumption:vector ETV
attr interpolationmode sample-hold
attr recordingmode vector
attr source powerConsumptionChanged
attr title "Power consumption"
attr unit W
vector 134 WsnNetwork.node[3].wlan.radio radioMode:vector ETV
attr interpolationmode sample-hold
attr recordingmode vector
attr source radioModeChanged
attr title "Radio mode"
vector 135 WsnNetwork.node[3].wlan.radio receptionState:vector ETV
attr interpolationmode sample-hold
attr recordingmode vector
attr source receptionStateChanged
attr title "Radio reception state"
vector 136 WsnNetwork.node[3].wlan.radio transmissionState:vector ETV
attr interpolationmode sample-hold
attr recordingmode vector
attr source transmissionStateChanged
attr title "Radio transmission state"
vector 137 WsnNetwork.node[3].wlan packetDropInterfaceDown:vector(packetBytes) ETV
attr interpolationmode none
attr recordingmode vector(packetBytes)
attr source packetDropReasonIsInterfaceDown(packetDropped)
attr title "packet drops: interface down, packetBytes"
vector 138 WsnNetwork.node[3].wlan packetDropNoCarrier:vector(packetBytes) ETV
attr interpolationmode none
attr recordingmode vector(packetBytes)
attr source packetDropReasonIsNoCarrier(packetDropped)
attr title "packet drops: no carrier, packetBytes"
vector 139 WsnNetwork.node[4].energyStorage powerConsumption:vector ETV
attr interpolationmode sample-hold
attr recordingmode vector
attr source powerConsumptionChanged
attr title "Power consumption"
attr unit W
vector 140 WsnNetwork.node[4].energyStorage powerGeneration:vector ETV
attr interpolationmode sample-hold
attr recordingmode vector
attr source powerGenerationChanged
attr title "Power generation"
attr unit W
vector 141 WsnNetwork.node[4].energyStorage residualEnergyCapacity:vector ETV
attr interpolationmode linear
attr recordingmode vector
attr source residualEnergyCapacityChanged
attr title "Residual energy capacity"
attr unit J
vector 142 WsnNetwork.node[4].app packetSent:vector ETV
attr recordingmode vector
vector 143 WsnNetwork.node[4].routing packetReceived:vector ETV
attr recordingmode vector
vector 144 WsnNetwork.node[4].routing endToEndDelay:vector ETV
attr recordingmode vector
vector 145 WsnNetwork.node[4].wlan.queue queueLength:vector ETV
attr autoWarmupFilter false
attr interpolationmode sample-hold
attr recordingmode vector
attr source "warmup(atomic(constant0(packetPushEnded) + count(packetPushStarted) - count(packetPulled) - count(packetRemoved) - count(packetDropped)))"
attr title "queue length"
attr unit pk
vector 146 WsnNetwork.node[4].wlan.queue queueBitLength:vector ETV
attr autoWarmupFilter false
attr interpolationmode sample-hold
attr recordingmode vector
attr source "warmup(atomic(constant0(packetPushEnded) + sum(packetLength(packetPushStarted)) - sum(packetLength(packetPulled)) - sum(packetLength(packetRemoved)) - sum(packetLength(packetDropped))))"
attr title "queue bit length"
attr unit b
vector 147 WsnNetwork.node[4].wlan.queue queueingTime:vector ETV
attr interpolationmode none
attr recordingmode vector
attr source queueingTime(packetPulled)
attr title "queueing times"
attr unit s
vector 148 WsnNetwork.node[4].wlan.queue incomingPacketLengths:vector ETV
attr interpolationmode none
attr recordingmode vector
attr source packetLength(packetPushStarted)
attr title "incoming packet lengths"
attr unit b
vector 149 WsnNetwork.node[4].wlan.queue incomingDataRate:vector ETV
attr interpolationmode linear
attr recordingmode vector
attr source throughput(packetPushStarted)
attr title "incoming datarate"
attr unit bps
vector 150 WsnNetwork.node[4].wlan.queue outgoingPacketLengths:vector ETV
attr interpolationmode none
attr recordingmode vector
attr source packetLength(packetPulled)
attr title "outgoing packet lengths"
attr unit b
vector 151 WsnNetwork.node[4].wlan.queue outgoingDataRate:vector ETV
attr interpolationmode linear
attr recordingmode vector
attr source throughput(packetPulled)
attr title "outgoing datarate"
attr unit bps
vector 152 WsnNetwork.node[4].wlan.queue droppedPacketLengthsQueueOverflow:vector ETV
attr interpolationmode none
attr recordingmode vector
attr source packetLength(packetDropReasonIsQueueOverflow(packetDropped))
attr title "dropped packet lengths: queue overflow"
attr unit b
vector 153 WsnNetwork.node[4].wlan.queue flowQueueingTime:vector ETV
attr interpolationmode none
attr recordingmode vector
attr source queueingTime(demuxFlow(packetPulled))
attr title "flow queueing times"
attr unit s
vector 154 WsnNetwork.node[4].wlan.queue flowIncomingDataRate:vector ETV
attr interpolationmode linear
attr recordingmode vector
attr source throughput(flowPacketLength(demuxFlow(packetPushStarted)))
attr title "flow specific incoming data rate"
attr unit bps
vector 155 WsnNetwork.node[4].wlan.queue flowOutgoingDataRate:vector ETV
attr interpolationmode linear
attr recordingmode vector
attr source throughput(flowPacketLength(demuxFlow(packetPulled)))
attr title "flow specific outgoing data rate"
attr unit bps
vector 156 WsnNetwork.node[4].wlan.mac packetDropNotAddressToUs:vector(packetBytes) ETV
attr interpolationmode none
attr recordingmode vector(packetBytes)
attr source packetDropReasonIsNotAddressedToUs(packetDropped)
attr title "packet drop: not addressed to us, packetBytes"
vector 157 WsnNetwork.node[4].wlan.mac packetDropIncorrectlyReceived:vector(packetBytes) ETV
attr interpolationmode none
attr recordingmode vector(packetBytes)
attr source packetDropReasonIsIncorrectlyReceived(packetDropped)
attr title "packet drop: incorrectly received, packetBytes"
vector 158 WsnNetwork.node[4].wlan.mac packetDropQueueOverflow:vector(packetBytes) ETV
attr interpolationmode none
attr recordingmode vector(packetBytes)
attr source packetDropReasonIsQueueOverflow(packetDropped)
attr title "packet drop: queue overflow, packetBytes"
vector 159 WsnNetwork.node[4].wlan.mac packetDropRetryLimitReached:vector(packetBytes) ETV
attr interpolationmode none
attr recordingmode vector(packetBytes)
attr source packetDropReasonIsRetryLimitReached(packetDropped)
attr title "packet drop: retry limit reached, packetBytes"
vector 160 WsnNetwork.node[4].wlan.mac packetDropBackoffLimitReached:vector(packetBytes) ETV
attr interpolationmode none
attr recordingmode vector(packetBytes)
attr source packetDropReasonIsCongestion(packetDropped)
attr title "packet drop: backoff limit reached, packetBytes"
vector 161 WsnNetwork.node[4].wlan.radio.energyConsumer powerConsumption:vector ETV
attr interpolationmode sample-hold
attr recordingmode vector
attr source powerConsumptionChanged
attr title "Power consumption"
attr unit W
vector 162 WsnNetwork.node[4].wlan.radio radioMode:vector ETV
attr interpolationmode sample-hold
attr recordingmode vector
attr source radioModeChanged
attr title "Radio mode"
vector 163 WsnNetwork.node[4].wlan.radio receptionState:vector ETV
attr interpolationmode sample-hold
attr recordingmode vector
attr source receptionStateChanged
attr title "Radio reception state"
vector 164 WsnNetwork.node[4].wlan.radio transmissionState:vector ETV
attr interpolationmode sample-hold
attr recordingmode vector
attr source transmissionStateChanged
attr title "Radio transmission state"
vector 165 WsnNetwork.node[4].wlan packetDropInterfaceDown:vector(packetBytes) ETV
attr interpolationmode none
attr recordingmode vector(packetBytes)
attr source packetDropReasonIsInterfaceDown(packetDropped)
attr title "packet drops: interface down, packetBytes"
vector 166 WsnNetwork.node[4].wlan packetDropNoCarrier:vector(packetBytes) ETV
attr interpolationmode none
attr recordingmode vector(packetBytes)
attr source packetDropReasonIsNoCarrier(packetDropped)
attr title "packet drops: no carrier, packetBytes"
vector 167 WsnNetwork.node[5].energyStorage powerConsumption:vector ETV
attr interpolationmode sample-hold
attr recordingmode vector
attr source powerConsumptionChanged
attr title "Power consumption"
attr unit W
vector 168 WsnNetwork.node[5].energyStorage powerGeneration:vector ETV
attr interpolationmode sample-hold
attr recordingmode vector
attr source powerGenerationChanged
attr title "Power generation"
attr unit W
vector 169 WsnNetwork.node[5].energyStorage residualEnergyCapacity:vector ETV
attr interpolationmode linear
attr recordingmode vector
attr source residualEnergyCapacityChanged
attr title "Residual energy capacity"
attr unit J
vector 170 WsnNetwork.node[5].app packetSent:vector ETV
attr recordingmode vector
vector 171 WsnNetwork.node[5].routing packetReceived:vector ETV
attr recordingmode vector
vector 172 WsnNetwork.node[5].routing endToEndDelay:vector ETV
attr recordingmode vector
vector 173 WsnNetwork.node[5].wlan.queue queueLength:vector ETV
attr autoWarmupFilter false
attr interpolationmode sample-hold
attr recordingmode vector
attr source "warmup(atomic(constant0(packetPushEnded) + count(packetPushStarted) - count(packetPulled) - count(packetRemoved) - count(packetDropped)))"
attr title "queue length"
attr unit pk
vector 174 WsnNetwork.node[5].wlan.queue queueBitLength:vector ETV
attr autoWarmupFilter false
attr interpolationmode sample-hold
attr recordingmode vector
attr source "warmup(atomic(constant0(packetPushEnded) + sum(packetLength(packetPushStarted)) - sum(packetLength(packetPulled)) - sum(packetLength(packetRemoved)) - sum(packetLength(packetDropped))))"
attr title "queue bit length"
attr unit b
vector 175 WsnNetwork.node[5].wlan.queue queueingTime:vector ETV
attr interpolationmode none
attr recordingmode vector
attr source queueingTime(packetPulled)
attr title "queueing times"
attr unit s
vector 176 WsnNetwork.node[5].wlan.queue incomingPacketLengths:vector ETV
attr interpolationmode none
attr recordingmode vector
attr source packetLength(packetPushStarted)
attr title "incoming packet lengths"
attr unit b
vector 177 WsnNetwork.node[5].wlan.queue incomingDataRate:vector ETV
attr interpolationmode linear
attr recordingmode vector
attr source throughput(packetPushStarted)
attr title "incoming datarate"
attr unit bps
vector 178 WsnNetwork.node[5].wlan.queue outgoingPacketLengths:vector ETV
attr interpolationmode none
attr recordingmode vector
attr source packetLength(packetPulled)
attr title "outgoing packet lengths"
attr unit b
vector 179 WsnNetwork.node[5].wlan.queue outgoingDataRate:vector ETV
attr interpolationmode linear
attr recordingmode vector
attr source throughput(packetPulled)
attr title "outgoing datarate"
attr unit bps
vector 180 WsnNetwork.node[5].wlan.queue droppedPacketLengthsQueueOverflow:vector ETV
attr interpolationmode none
attr recordingmode vector
attr source packetLength(packetDropReasonIsQueueOverflow(packetDropped))
attr title "dropped packet lengths: queue overflow"
attr unit b
vector 181 WsnNetwork.node[5].wlan.queue flowQueueingTime:vector ETV
attr interpolationmode none
attr recordingmode vector
attr source queueingTime(demuxFlow(packetPulled))
attr title "flow queueing times"
attr unit s
vector 182 WsnNetwork.node[5].wlan.queue flowIncomingDataRate:vector ETV
attr interpolationmode linear
attr recordingmode vector
attr source throughput(flowPacketLength(demuxFlow(packetPushStarted)))
attr title "flow specific incoming data rate"
attr unit bps
vector 183 WsnNetwork.node[5].wlan.queue flowOutgoingDataRate:vector ETV
attr interpolationmode linear
attr recordingmode vector
attr source throughput(flowPacketLength(demuxFlow(packetPulled)))
attr title "flow specific outgoing data rate"
attr unit bps
vector 184 WsnNetwork.node[5].wlan.mac packetDropNotAddressToUs:vector(packetBytes) ETV
attr interpolationmode none
attr recordingmode vector(packetBytes)
attr source packetDropReasonIsNotAddressedToUs(packetDropped)
attr title "packet drop: not addressed to us, packetBytes"
vector 185 WsnNetwork.node[5].wlan.mac packetDropIncorrectlyReceived:vector(packetBytes) ETV
attr interpolationmode none
attr recordingmode vector(packetBytes)
attr source packetDropReasonIsIncorrectlyReceived(packetDropped)
attr title "packet drop: incorrectly received, packetBytes"
vector 186 WsnNetwork.node[5].wlan.mac packetDropQueueOverflow:vector(packetBytes) ETV
attr interpolationmode none
attr recordingmode vector(packetBytes)
attr source packetDropReasonIsQueueOverflow(packetDropped)
attr title "packet drop: queue overflow, packetBytes"
vector 187 WsnNetwork.node[5].wlan.mac packetDropRetryLimitReached:vector(packetBytes) ETV
attr interpolationmode none
attr recordingmode vector(packetBytes)
attr source packetDropReasonIsRetryLimitReached(packetDropped)
attr title "packet drop: retry limit reached, packetBytes"
vector 188 WsnNetwork.node[5].wlan.mac packetDropBackoffLimitReached:vector(packetBytes) ETV
attr interpolationmode none
attr recordingmode vector(packetBytes)
attr source packetDropReasonIsCongestion(packetDropped)
attr title "packet drop: backoff limit reached, packetBytes"
vector 189 WsnNetwork.node[5].wlan.radio.energyConsumer powerConsumption:vector ETV
attr interpolationmode sample-hold
attr recordingmode vector
attr source powerConsumptionChanged
attr title "Power consumption"
attr unit W
vector 190 WsnNetwork.node[5].wlan.radio radioMode:vector ETV
attr interpolationmode sample-hold
attr recordingmode vector
attr source radioModeChanged
attr title "Radio mode"
vector 191 WsnNetwork.node[5].wlan.radio receptionState:vector ETV
attr interpolationmode sample-hold
attr recordingmode vector
attr source receptionStateChanged
attr title "Radio reception state"
vector 192 WsnNetwork.node[5].wlan.radio transmissionState:vector ETV
attr interpolationmode sample-hold
attr recordingmode vector
attr source transmissionStateChanged
attr title "Radio transmission state"
vector 193 WsnNetwork.node[5].wlan packetDropInterfaceDown:vector(packetBytes) ETV
attr interpolationmode none
attr recordingmode vector(packetBytes)
attr source packetDropReasonIsInterfaceDown(packetDropped)
attr title "packet drops: interface down, packetBytes"
vector 194 WsnNetwork.node[5].wlan packetDropNoCarrier:vector(packetBytes) ETV
attr interpolationmode none
attr recordingmode vector(packetBytes)
attr source packetDropReasonIsNoCarrier(packetDropped)
attr title "packet drops: no carrier, packetBytes"
vector 195 WsnNetwork.node[6].energyStorage powerConsumption:vector ETV
attr interpolationmode sample-hold
attr recordingmode vector
attr source powerConsumptionChanged
attr title "Power consumption"
attr unit W
vector 196 WsnNetwork.node[6].energyStorage powerGeneration:vector ETV
attr interpolationmode sample-hold
attr recordingmode vector
attr source powerGenerationChanged
attr title "Power generation"
attr unit W
vector 197 WsnNetwork.node[6].energyStorage residualEnergyCapacity:vector ETV
attr interpolationmode linear
attr recordingmode vector
attr source residualEnergyCapacityChanged
attr title "Residual energy capacity"
attr unit J
vector 198 WsnNetwork.node[6].app packetSent:vector ETV
attr recordingmode vector
vector 199 WsnNetwork.node[6].routing packetReceived:vector ETV
attr recordingmode vector
vector 200 WsnNetwork.node[6].routing endToEndDelay:vector ETV
attr recordingmode vector
vector 201 WsnNetwork.node[6].wlan.queue queueLength:vector ETV
attr autoWarmupFilter false
attr interpolationmode sample-hold
attr recordingmode vector
attr source "warmup(atomic(constant0(packetPushEnded) + count(packetPushStarted) - count(packetPulled) - count(packetRemoved) - count(packetDropped)))"
attr title "queue length"
attr unit pk
vector 202 WsnNetwork.node[6].wlan.queue queueBitLength:vector ETV
attr autoWarmupFilter false
attr interpolationmode sample-hold
attr recordingmode vector
attr source "warmup(atomic(constant0(packetPushEnded) + sum(packetLength(packetPushStarted)) - sum(packetLength(packetPulled)) - sum(packetLength(packetRemoved)) - sum(packetLength(packetDropped))))"
attr title "queue bit length"
attr unit b
vector 203 WsnNetwork.node[6].wlan.queue queueingTime:vector ETV
attr interpolationmode none
attr recordingmode vector
attr source queueingTime(packetPulled)
attr title "queueing times"
attr unit s
vector 204 WsnNetwork.node[6].wlan.queue incomingPacketLengths:vector ETV
attr interpolationmode none
attr recordingmode vector
attr source packetLength(packetPushStarted)
attr title "incoming packet lengths"
attr unit b
vector 205 WsnNetwork.node[6].wlan.queue incomingDataRate:vector ETV
attr interpolationmode linear
attr recordingmode vector
attr source throughput(packetPushStarted)
attr title "incoming datarate"
attr unit bps
vector 206 WsnNetwork.node[6].wlan.queue outgoingPacketLengths:vector ETV
attr interpolationmode none
attr recordingmode vector
attr source packetLength(packetPulled)
attr title "outgoing packet lengths"
attr unit b
vector 207 WsnNetwork.node[6].wlan.queue outgoingDataRate:vector ETV
attr interpolationmode linear
attr recordingmode vector
attr source throughput(packetPulled)
attr title "outgoing datarate"
attr unit bps
vector 208 WsnNetwork.node[6].wlan.queue droppedPacketLengthsQueueOverflow:vector ETV
attr interpolationmode none
attr recordingmode vector
attr source packetLength(packetDropReasonIsQueueOverflow(packetDropped))
attr title "dropped packet lengths: queue overflow"
attr unit b
vector 209 WsnNetwork.node[6].wlan.queue flowQueueingTime:vector ETV
attr interpolationmode none
attr recordingmode vector
attr source queueingTime(demuxFlow(packetPulled))
attr title "flow queueing times"
attr unit s
vector 210 WsnNetwork.node[6].wlan.queue flowIncomingDataRate:vector ETV
attr interpolationmode linear
attr recordingmode vector
attr source throughput(flowPacketLength(demuxFlow(packetPushStarted)))
attr title "flow specific incoming data rate"
attr unit bps
vector 211 WsnNetwork.node[6].wlan.queue flowOutgoingDataRate:vector ETV
attr interpolationmode linear
attr recordingmode vector
attr source throughput(flowPacketLength(demuxFlow(packetPulled)))
attr title "flow specific outgoing data rate"
attr unit bps
vector 212 WsnNetwork.node[6].wlan.mac packetDropNotAddressToUs:vector(packetBytes) ETV
attr interpolationmode none
attr recordingmode vector(packetBytes)
attr source packetDropReasonIsNotAddressedToUs(packetDropped)
attr title "packet drop: not addressed to us, packetBytes"
vector 213 WsnNetwork.node[6].wlan.mac packetDropIncorrectlyReceived:vector(packetBytes) ETV
attr interpolationmode none
attr recordingmode vector(packetBytes)
attr source packetDropReasonIsIncorrectlyReceived(packetDropped)
attr title "packet drop: incorrectly received, packetBytes"
vector 214 WsnNetwork.node[6].wlan.mac packetDropQueueOverflow:vector(packetBytes) ETV
attr interpolationmode none
attr recordingmode vector(packetBytes)
attr source packetDropReasonIsQueueOverflow(packetDropped)
attr title "packet drop: queue overflow, packetBytes"
vector 215 WsnNetwork.node[6].wlan.mac packetDropRetryLimitReached:vector(packetBytes) ETV
attr interpolationmode none
attr recordingmode vector(packetBytes)
attr source packetDropReasonIsRetryLimitReached(packetDropped)
attr title "packet drop: retry limit reached, packetBytes"
vector 216 WsnNetwork.node[6].wlan.mac packetDropBackoffLimitReached:vector(packetBytes) ETV
attr interpolationmode none
attr recordingmode vector(packetBytes)
attr source packetDropReasonIsCongestion(packetDropped)
attr title "packet drop: backoff limit reached, packetBytes"
vector 217 WsnNetwork.node[6].wlan.radio.energyConsumer powerConsumption:vector ETV
attr interpolationmode sample-hold
attr recordingmode vector
attr source powerConsumptionChanged
attr title "Power consumption"
attr unit W
vector 218 WsnNetwork.node[6].wlan.radio radioMode:vector ETV
attr interpolationmode sample-hold
attr recordingmode vector
attr source radioModeChanged
attr title "Radio mode"
vector 219 WsnNetwork.node[6].wlan.radio receptionState:vector ETV
attr interpolationmode sample-hold
attr recordingmode vector
attr source receptionStateChanged
attr title "Radio reception state"
vector 220 WsnNetwork.node[6].wlan.radio transmissionState:vector ETV
attr interpolationmode sample-hold
attr recordingmode vector
attr source transmissionStateChanged
attr title "Radio transmission state"
vector 221 WsnNetwork.node[6].wlan packetDropInterfaceDown:vector(packetBytes) ETV
attr interpolationmode none
attr recordingmode vector(packetBytes)
attr source packetDropReasonIsInterfaceDown(packetDropped)
attr title "packet drops: interface down, packetBytes"
vector 222 WsnNetwork.node[6].wlan packetDropNoCarrier:vector(packetBytes) ETV
attr interpolationmode none
attr recordingmode vector(packetBytes)
attr source packetDropReasonIsNoCarrier(packetDropped)
attr title "packet drops: no carrier, packetBytes"
vector 223 WsnNetwork.node[7].energyStorage powerConsumption:vector ETV
attr interpolationmode sample-hold
attr recordingmode vector
attr source powerConsumptionChanged
attr title "Power consumption"
attr unit W
vector 224 WsnNetwork.node[7].energyStorage powerGeneration:vector ETV
attr interpolationmode sample-hold
attr recordingmode vector
attr source powerGenerationChanged
attr title "Power generation"
attr unit W
vector 225 WsnNetwork.node[7].energyStorage residualEnergyCapacity:vector ETV
attr interpolationmode linear
attr recordingmode vector
attr source residualEnergyCapacityChanged
attr title "Residual energy capacity"
attr unit J
vector 226 WsnNetwork.node[7].app packetSent:vector ETV
attr recordingmode vector
vector 227 WsnNetwork.node[7].routing packetReceived:vector ETV
attr recordingmode vector
vector 228 WsnNetwork.node[7].routing endToEndDelay:vector ETV
attr recordingmode vector
vector 229 WsnNetwork.node[7].wlan.queue queueLength:vector ETV
attr autoWarmupFilter false
attr interpolationmode sample-hold
attr recordingmode vector
attr source "warmup(atomic(constant0(packetPushEnded) + count(packetPushStarted) - count(packetPulled) - count(packetRemoved) - count(packetDropped)))"
attr title "queue length"
attr unit pk
vector 230 WsnNetwork.node[7].wlan.queue queueBitLength:vector ETV
attr autoWarmupFilter false
attr interpolationmode sample-hold
attr recordingmode vector
attr source "warmup(atomic(constant0(packetPushEnded) + sum(packetLength(packetPushStarted)) - sum(packetLength(packetPulled)) - sum(packetLength(packetRemoved)) - sum(packetLength(packetDropped))))"
attr title "queue bit length"
attr unit b
vector 231 WsnNetwork.node[7].wlan.queue queueingTime:vector ETV
attr interpolationmode none
attr recordingmode vector
attr source queueingTime(packetPulled)
attr title "queueing times"
attr unit s
vector 232 WsnNetwork.node[7].wlan.queue incomingPacketLengths:vector ETV
attr interpolationmode none
attr recordingmode vector
attr source packetLength(packetPushStarted)
attr title "incoming packet lengths"
attr unit b
vector 233 WsnNetwork.node[7].wlan.queue incomingDataRate:vector ETV
attr interpolationmode linear
attr recordingmode vector
attr source throughput(packetPushStarted)
attr title "incoming datarate"
attr unit bps
vector 234 WsnNetwork.node[7].wlan.queue outgoingPacketLengths:vector ETV
attr interpolationmode none
attr recordingmode vector
attr source packetLength(packetPulled)
attr title "outgoing packet lengths"
attr unit b
vector 235 WsnNetwork.node[7].wlan.queue outgoingDataRate:vector ETV
attr interpolationmode linear
attr recordingmode vector
attr source throughput(packetPulled)
attr title "outgoing datarate"
attr unit bps
vector 236 WsnNetwork.node[7].wlan.queue droppedPacketLengthsQueueOverflow:vector ETV
attr interpolationmode none
attr recordingmode vector
attr source packetLength(packetDropReasonIsQueueOverflow(packetDropped))
attr title "dropped packet lengths: queue overflow"
attr unit b
vector 237 WsnNetwork.node[7].wlan.queue flowQueueingTime:vector ETV
attr interpolationmode none
attr recordingmode vector
attr source queueingTime(demuxFlow(packetPulled))
attr title "flow queueing times"
attr unit s
vector 238 WsnNetwork.node[7].wlan.queue flowIncomingDataRate:vector ETV
attr interpolationmode linear
attr recordingmode vector
attr source throughput(flowPacketLength(demuxFlow(packetPushStarted)))
attr title "flow specific incoming data rate"
attr unit bps
vector 239 WsnNetwork.node[7].wlan.queue flowOutgoingDataRate:vector ETV
attr interpolationmode linear
attr recordingmode vector
attr source throughput(flowPacketLength(demuxFlow(packetPulled)))
attr title "flow specific outgoing data rate"
attr unit bps
vector 240 WsnNetwork.node[7].wlan.mac packetDropNotAddressToUs:vector(packetBytes) ETV
attr interpolationmode none
attr recordingmode vector(packetBytes)
attr source packetDropReasonIsNotAddressedToUs(packetDropped)
attr title "packet drop: not addressed to us, packetBytes"
vector 241 WsnNetwork.node[7].wlan.mac packetDropIncorrectlyReceived:vector(packetBytes) ETV
attr interpolationmode none
attr recordingmode vector(packetBytes)
attr source packetDropReasonIsIncorrectlyReceived(packetDropped)
attr title "packet drop: incorrectly received, packetBytes"
vector 242 WsnNetwork.node[7].wlan.mac packetDropQueueOverflow:vector(packetBytes) ETV
attr interpolationmode none
attr recordingmode vector(packetBytes)
attr source packetDropReasonIsQueueOverflow(packetDropped)
attr title "packet drop: queue overflow, packetBytes"
vector 243 WsnNetwork.node[7].wlan.mac packetDropRetryLimitReached:vector(packetBytes) ETV
attr interpolationmode none
attr recordingmode vector(packetBytes)
attr source packetDropReasonIsRetryLimitReached(packetDropped)
attr title "packet drop: retry limit reached, packetBytes"
vector 244 WsnNetwork.node[7].wlan.mac packetDropBackoffLimitReached:vector(packetBytes) ETV
attr interpolationmode none
attr recordingmode vector(packetBytes)
attr source packetDropReasonIsCongestion(packetDropped)
attr title "packet drop: backoff limit reached, packetBytes"
vector 245 WsnNetwork.node[7].wlan.radio.energyConsumer powerConsumption:vector ETV
attr interpolationmode sample-hold
attr recordingmode vector
attr source powerConsumptionChanged
attr title "Power consumption"
attr unit W
vector 246 WsnNetwork.node[7].wlan.radio radioMode:vector ETV
attr interpolationmode sample-hold
attr recordingmode vector
attr source radioModeChanged
attr title "Radio mode"
vector 247 WsnNetwork.node[7].wlan.radio receptionState:vector ETV
attr interpolationmode sample-hold
attr recordingmode vector
attr source receptionStateChanged
attr title "Radio reception state"
vector 248 WsnNetwork.node[7].wlan.radio transmissionState:vector ETV
attr interpolationmode sample-hold
attr recordingmode vector
attr source transmissionStateChanged
attr title "Radio transmission state"
vector 249 WsnNetwork.node[7].wlan packetDropInterfaceDown:vector(packetBytes) ETV
attr interpolationmode none
attr recordingmode vector(packetBytes)
attr source packetDropReasonIsInterfaceDown(packetDropped)
attr title "packet drops: interface down, packetBytes"
vector 250 WsnNetwork.node[7].wlan packetDropNoCarrier:vector(packetBytes) ETV
attr interpolationmode none
attr recordingmode vector(packetBytes)
attr source packetDropReasonIsNoCarrier(packetDropped)
attr title "packet drops: no carrier, packetBytes"
vector 251 WsnNetwork.node[8].energyStorage powerConsumption:vector ETV
attr interpolationmode sample-hold
attr recordingmode vector
attr source powerConsumptionChanged
attr title "Power consumption"
attr unit W
vector 252 WsnNetwork.node[8].energyStorage powerGeneration:vector ETV
attr interpolationmode sample-hold
attr recordingmode vector
attr source powerGenerationChanged
attr title "Power generation"
attr unit W
vector 253 WsnNetwork.node[8].energyStorage residualEnergyCapacity:vector ETV
attr interpolationmode linear
attr recordingmode vector
attr source residualEnergyCapacityChanged
attr title "Residual energy capacity"
attr unit J
vector 254 WsnNetwork.node[8].app packetSent:vector ETV
attr recordingmode vector
vector 255 WsnNetwork.node[8].routing packetReceived:vector ETV
attr recordingmode vector
vector 256 WsnNetwork.node[8].routing endToEndDelay:vector ETV
attr recordingmode vector
vector 257 WsnNetwork.node[8].wlan.queue queueLength:vector ETV
attr autoWarmupFilter false
attr interpolationmode sample-hold
attr recordingmode vector
attr source "warmup(atomic(constant0(packetPushEnded) + count(packetPushStarted) - count(packetPulled) - count(packetRemoved) - count(packetDropped)))"
attr title "queue length"
attr unit pk
vector 258 WsnNetwork.node[8].wlan.queue queueBitLength:vector ETV
attr autoWarmupFilter false
attr interpolationmode sample-hold
attr recordingmode vector
attr source "warmup(atomic(constant0(packetPushEnded) + sum(packetLength(packetPushStarted)) - sum(packetLength(packetPulled)) - sum(packetLength(packetRemoved)) - sum(packetLength(packetDropped))))"
attr title "queue bit length"
attr unit b
vector 259 WsnNetwork.node[8].wlan.queue queueingTime:vector ETV
attr interpolationmode none
attr recordingmode vector
attr source queueingTime(packetPulled)
attr title "queueing times"
attr unit s
vector 260 WsnNetwork.node[8].wlan.queue incomingPacketLengths:vector ETV
attr interpolationmode none
attr recordingmode vector
attr source packetLength(packetPushStarted)
attr title "incoming packet lengths"
attr unit b
vector 261 WsnNetwork.node[8].wlan.queue incomingDataRate:vector ETV
attr interpolationmode linear
attr recordingmode vector
attr source throughput(packetPushStarted)
attr title "incoming datarate"
attr unit bps
vector 262 WsnNetwork.node[8].wlan.queue outgoingPacketLengths:vector ETV
attr interpolationmode none
attr recordingmode vector
attr source packetLength(packetPulled)
attr title "outgoing packet lengths"
attr unit b
vector 263 WsnNetwork.node[8].wlan.queue outgoingDataRate:vector ETV
attr interpolationmode linear
attr recordingmode vector
attr source throughput(packetPulled)
attr title "outgoing datarate"
attr unit bps
vector 264 WsnNetwork.node[8].wlan.queue droppedPacketLengthsQueueOverflow:vector ETV
attr interpolationmode none
attr recordingmode vector
attr source packetLength(packetDropReasonIsQueueOverflow(packetDropped))
attr title "dropped packet lengths: queue overflow"
attr unit b
vector 265 WsnNetwork.node[8].wlan.queue flowQueueingTime:vector ETV
attr interpolationmode none
attr recordingmode vector
attr source queueingTime(demuxFlow(packetPulled))
attr title "flow queueing times"
attr unit s
vector 266 WsnNetwork.node[8].wlan.queue flowIncomingDataRate:vector ETV
attr interpolationmode linear
attr recordingmode vector
attr source throughput(flowPacketLength(demuxFlow(packetPushStarted)))
attr title "flow specific incoming data rate"
attr unit bps
vector 267 WsnNetwork.node[8].wlan.queue flowOutgoingDataRate:vector ETV
attr interpolationmode linear
attr recordingmode vector
attr source throughput(flowPacketLength(demuxFlow(packetPulled)))
attr title "flow specific outgoing data rate"
attr unit bps
vector 268 WsnNetwork.node[8].wlan.mac packetDropNotAddressToUs:vector(packetBytes) ETV
attr interpolationmode none
attr recordingmode vector(packetBytes)
attr source packetDropReasonIsNotAddressedToUs(packetDropped)
attr title "packet drop: not addressed to us, packetBytes"
vector 269 WsnNetwork.node[8].wlan.mac packetDropIncorrectlyReceived:vector(packetBytes) ETV
attr interpolationmode none
attr recordingmode vector(packetBytes)
attr source packetDropReasonIsIncorrectlyReceived(packetDropped)
attr title "packet drop: incorrectly received, packetBytes"
vector 270 WsnNetwork.node[8].wlan.mac packetDropQueueOverflow:vector(packetBytes) ETV
attr interpolationmode none
attr recordingmode vector(packetBytes)
attr source packetDropReasonIsQueueOverflow(packetDropped)
attr title "packet drop: queue overflow, packetBytes"
vector 271 WsnNetwork.node[8].wlan.mac packetDropRetryLimitReached:vector(packetBytes) ETV
attr interpolationmode none
attr recordingmode vector(packetBytes)
attr source packetDropReasonIsRetryLimitReached(packetDropped)
attr title "packet drop: retry limit reached, packetBytes"
vector 272 WsnNetwork.node[8].wlan.mac packetDropBackoffLimitReached:vector(packetBytes) ETV
attr interpolationmode none
attr recordingmode vector(packetBytes)
attr source packetDropReasonIsCongestion(packetDropped)
attr title "packet drop: backoff limit reached, packetBytes"
vector 273 WsnNetwork.node[8].wlan.radio.energyConsumer powerConsumption:vector ETV
attr interpolationmode sample-hold
attr recordingmode vector
attr source powerConsumptionChanged
attr title "Power consumption"
attr unit W
vector 274 WsnNetwork.node[8].wlan.radio radioMode:vector ETV
attr interpolationmode sample-hold
attr recordingmode vector
attr source radioModeChanged
attr title "Radio mode"
vector 275 WsnNetwork.node[8].wlan.radio receptionState:vector ETV
attr interpolationmode sample-hold
attr recordingmode vector
attr source receptionStateChanged
attr title "Radio reception state"
vector 276 WsnNetwork.node[8].wlan.radio transmissionState:vector ETV
attr interpolationmode sample-hold
attr recordingmode vector
attr source transmissionStateChanged
attr title "Radio transmission state"
vector 277 WsnNetwork.node[8].wlan packetDropInterfaceDown:vector(packetBytes) ETV
attr interpolationmode none
attr recordingmode vector(packetBytes)
attr source packetDropReasonIsInterfaceDown(packetDropped)
attr title "packet drops: interface down, packetBytes"
vector 278 WsnNetwork.node[8].wlan packetDropNoCarrier:vector(packetBytes) ETV
attr interpolationmode none
attr recordingmode vector(packetBytes)
attr source packetDropReasonIsNoCarrier(packetDropped)
attr title "packet drops: no carrier, packetBytes"
vector 279 WsnNetwork.node[9].energyStorage powerConsumption:vector ETV
attr interpolationmode sample-hold
attr recordingmode vector
attr source powerConsumptionChanged
attr title "Power consumption"
attr unit W
vector 280 WsnNetwork.node[9].energyStorage powerGeneration:vector ETV
attr interpolationmode sample-hold
attr recordingmode vector
attr source powerGenerationChanged
attr title "Power generation"
attr unit W
vector 281 WsnNetwork.node[9].energyStorage residualEnergyCapacity:vector ETV
attr interpolationmode linear
attr recordingmode vector
attr source residualEnergyCapacityChanged
attr title "Residual energy capacity"
attr unit J
vector 282 WsnNetwork.node[9].app packetSent:vector ETV
attr recordingmode vector
vector 283 WsnNetwork.node[9].routing packetReceived:vector ETV
attr recordingmode vector
vector 284 WsnNetwork.node[9].routing endToEndDelay:vector ETV
attr recordingmode vector
vector 285 WsnNetwork.node[9].wlan.queue queueLength:vector ETV
attr autoWarmupFilter false
attr interpolationmode sample-hold
attr recordingmode vector
attr source "warmup(atomic(constant0(packetPushEnded) + count(packetPushStarted) - count(packetPulled) - count(packetRemoved) - count(packetDropped)))"
attr title "queue length"
attr unit pk
vector 286 WsnNetwork.node[9].wlan.queue queueBitLength:vector ETV
attr autoWarmupFilter false
attr interpolationmode sample-hold
attr recordingmode vector
attr source "warmup(atomic(constant0(packetPushEnded) + sum(packetLength(packetPushStarted)) - sum(packetLength(packetPulled)) - sum(packetLength(packetRemoved)) - sum(packetLength(packetDropped))))"
attr title "queue bit length"
attr unit b
vector 287 WsnNetwork.node[9].wlan.queue queueingTime:vector ETV
attr interpolationmode none
attr recordingmode vector
attr source queueingTime(packetPulled)
attr title "queueing times"
attr unit s
vector 288 WsnNetwork.node[9].wlan.queue incomingPacketLengths:vector ETV
attr interpolationmode none
attr recordingmode vector
attr source packetLength(packetPushStarted)
attr title "incoming packet lengths"
attr unit b
vector 289 WsnNetwork.node[9].wlan.queue incomingDataRate:vector ETV
attr interpolationmode linear
attr recordingmode vector
attr source throughput(packetPushStarted)
attr title "incoming datarate"
attr unit bps
vector 290 WsnNetwork.node[9].wlan.queue outgoingPacketLengths:vector ETV
attr interpolationmode none
attr recordingmode vector
attr source packetLength(packetPulled)
attr title "outgoing packet lengths"
attr unit b
vector 291 WsnNetwork.node[9].wlan.queue outgoingDataRate:vector ETV
attr interpolationmode linear
attr recordingmode vector
attr source throughput(packetPulled)
attr title "outgoing datarate"
attr unit bps
vector 292 WsnNetwork.node[9].wlan.queue droppedPacketLengthsQueueOverflow:vector ETV
attr interpolationmode none
attr recordingmode vector
attr source packetLength(packetDropReasonIsQueueOverflow(packetDropped))
attr title "dropped packet lengths: queue overflow"
attr unit b
vector 293 WsnNetwork.node[9].wlan.queue flowQueueingTime:vector ETV
attr interpolationmode none
attr recordingmode vector
attr source queueingTime(demuxFlow(packetPulled))
attr title "flow queueing times"
attr unit s
vector 294 WsnNetwork.node[9].wlan.queue flowIncomingDataRate:vector ETV
attr interpolationmode linear
attr recordingmode vector
attr source throughput(flowPacketLength(demuxFlow(packetPushStarted)))
attr title "flow specific incoming data rate"
attr unit bps
vector 295 WsnNetwork.node[9].wlan.queue flowOutgoingDataRate:vector ETV
attr interpolationmode linear
attr recordingmode vector
attr source throughput(flowPacketLength(demuxFlow(packetPulled)))
attr title "flow specific outgoing data rate"
attr unit bps
vector 296 WsnNetwork.node[9].wlan.mac packetDropNotAddressToUs:vector(packetBytes) ETV
attr interpolationmode none
attr recordingmode vector(packetBytes)
attr source packetDropReasonIsNotAddressedToUs(packetDropped)
attr title "packet drop: not addressed to us, packetBytes"
vector 297 WsnNetwork.node[9].wlan.mac packetDropIncorrectlyReceived:vector(packetBytes) ETV
attr interpolationmode none
attr recordingmode vector(packetBytes)
attr source packetDropReasonIsIncorrectlyReceived(packetDropped)
attr title "packet drop: incorrectly received, packetBytes"
vector 298 WsnNetwork.node[9].wlan.mac packetDropQueueOverflow:vector(packetBytes) ETV
attr interpolationmode none
attr recordingmode vector(packetBytes)
attr source packetDropReasonIsQueueOverflow(packetDropped)
attr title "packet drop: queue overflow, packetBytes"
vector 299 WsnNetwork.node[9].wlan.mac packetDropRetryLimitReached:vector(packetBytes) ETV
attr interpolationmode none
attr recordingmode vector(packetBytes)
attr source packetDropReasonIsRetryLimitReached(packetDropped)
attr title "packet drop: retry limit reached, packetBytes"
vector 300 WsnNetwork.node[9].wlan.mac packetDropBackoffLimitReached:vector(packetBytes) ETV
attr interpolationmode none
attr recordingmode vector(packetBytes)
attr source packetDropReasonIsCongestion(packetDropped)
attr title "packet drop: backoff limit reached, packetBytes"
vector 301 WsnNetwork.node[9].wlan.radio.energyConsumer powerConsumption:vector ETV
attr interpolationmode sample-hold
attr recordingmode vector
attr source powerConsumptionChanged
attr title "Power consumption"
attr unit W
vector 302 WsnNetwork.node[9].wlan.radio radioMode:vector ETV
attr interpolationmode sample-hold
attr recordingmode vector
attr source radioModeChanged
attr title "Radio mode"
vector 303 WsnNetwork.node[9].wlan.radio receptionState:vector ETV
attr interpolationmode sample-hold
attr recordingmode vector
attr source receptionStateChanged
attr title "Radio reception state"
vector 304 WsnNetwork.node[9].wlan.radio transmissionState:vector ETV
attr interpolationmode sample-hold
attr recordingmode vector
attr source transmissionStateChanged
attr title "Radio transmission state"
vector 305 WsnNetwork.node[9].wlan packetDropInterfaceDown:vector(packetBytes) ETV
attr interpolationmode none
attr recordingmode vector(packetBytes)
attr source packetDropReasonIsInterfaceDown(packetDropped)
attr title "packet drops: interface down, packetBytes"
vector 306 WsnNetwork.node[9].wlan packetDropNoCarrier:vector(packetBytes) ETV
attr interpolationmode none
attr recordingmode vector(packetBytes)
attr source packetDropReasonIsNoCarrier(packetDropped)
attr title "packet drops: no carrier, packetBytes"
vector 307 WsnNetwork.node[10].energyStorage powerConsumption:vector ETV
attr interpolationmode sample-hold
attr recordingmode vector
attr source powerConsumptionChanged
attr title "Power consumption"
attr unit W
vector 308 WsnNetwork.node[10].energyStorage powerGeneration:vector ETV
attr interpolationmode sample-hold
attr recordingmode vector
attr source powerGenerationChanged
attr title "Power generation"
attr unit W
vector 309 WsnNetwork.node[10].energyStorage residualEnergyCapacity:vector ETV
attr interpolationmode linear
attr recordingmode vector
attr source residualEnergyCapacityChanged
attr title "Residual energy capacity"
attr unit J
vector 310 WsnNetwork.node[10].app packetSent:vector ETV
attr recordingmode vector
vector 311 WsnNetwork.node[10].routing packetReceived:vector ETV
attr recordingmode vector
vector 312 WsnNetwork.node[10].routing endToEndDelay:vector ETV
attr recordingmode vector
vector 313 WsnNetwork.node[10].wlan.queue queueLength:vector ETV
attr autoWarmupFilter false
attr interpolationmode sample-hold
attr recordingmode vector
attr source "warmup(atomic(constant0(packetPushEnded) + count(packetPushStarted) - count(packetPulled) - count(packetRemoved) - count(packetDropped)))"
attr title "queue length"
attr unit pk
vector 314 WsnNetwork.node[10].wlan.queue queueBitLength:vector ETV
attr autoWarmupFilter false
attr interpolationmode sample-hold
attr recordingmode vector
attr source "warmup(atomic(constant0(packetPushEnded) + sum(packetLength(packetPushStarted)) - sum(packetLength(packetPulled)) - sum(packetLength(packetRemoved)) - sum(packetLength(packetDropped))))"
attr title "queue bit length"
attr unit b
vector 315 WsnNetwork.node[10].wlan.queue queueingTime:vector ETV
attr interpolationmode none
attr recordingmode vector
attr source queueingTime(packetPulled)
attr title "queueing times"
attr unit s
vector 316 WsnNetwork.node[10].wlan.queue incomingPacketLengths:vector ETV
attr interpolationmode none
attr recordingmode vector
attr source packetLength(packetPushStarted)
attr title "incoming packet lengths"
attr unit b
vector 317 WsnNetwork.node[10].wlan.queue incomingDataRate:vector ETV
attr interpolationmode linear
attr recordingmode vector
attr source throughput(packetPushStarted)
attr title "incoming datarate"
attr unit bps
vector 318 WsnNetwork.node[10].wlan.queue outgoingPacketLengths:vector ETV
attr interpolationmode none
attr recordingmode vector
attr source packetLength(packetPulled)
attr title "outgoing packet lengths"
attr unit b
vector 319 WsnNetwork.node[10].wlan.queue outgoingDataRate:vector ETV
attr interpolationmode linear
attr recordingmode vector
attr source throughput(packetPulled)
attr title "outgoing datarate"
attr unit bps
vector 320 WsnNetwork.node[10].wlan.queue droppedPacketLengthsQueueOverflow:vector ETV
attr interpolationmode none
attr recordingmode vector
attr source packetLength(packetDropReasonIsQueueOverflow(packetDropped))
attr title "dropped packet lengths: queue overflow"
attr unit b
vector 321 WsnNetwork.node[10].wlan.queue flowQueueingTime:vector ETV
attr interpolationmode none
attr recordingmode vector
attr source queueingTime(demuxFlow(packetPulled))
attr title "flow queueing times"
attr unit s
vector 322 WsnNetwork.node[10].wlan.queue flowIncomingDataRate:vector ETV
attr interpolationmode linear
attr recordingmode vector
attr source throughput(flowPacketLength(demuxFlow(packetPushStarted)))
attr title "flow specific incoming data rate"
attr unit bps
vector 323 WsnNetwork.node[10].wlan.queue flowOutgoingDataRate:vector ETV
attr interpolationmode linear
attr recordingmode vector
attr source throughput(flowPacketLength(demuxFlow(packetPulled)))
attr title "flow specific outgoing data rate"
attr unit bps
vector 324 WsnNetwork.node[10].wlan.mac packetDropNotAddressToUs:vector(packetBytes) ETV
attr interpolationmode none
attr recordingmode vector(packetBytes)
attr source packetDropReasonIsNotAddressedToUs(packetDropped)
attr title "packet drop: not addressed to us, packetBytes"
vector 325 WsnNetwork.node[10].wlan.mac packetDropIncorrectlyReceived:vector(packetBytes) ETV
attr interpolationmode none
attr recordingmode vector(packetBytes)
attr source packetDropReasonIsIncorrectlyReceived(packetDropped)
attr title "packet drop: incorrectly received, packetBytes"
vector 326 WsnNetwork.node[10].wlan.mac packetDropQueueOverflow:vector(packetBytes) ETV
attr interpolationmode none
attr recordingmode vector(packetBytes)
attr source packetDropReasonIsQueueOverflow(packetDropped)
attr title "packet drop: queue overflow, packetBytes"
vector 327 WsnNetwork.node[10].wlan.mac packetDropRetryLimitReached:vector(packetBytes) ETV
attr interpolationmode none
attr recordingmode vector(packetBytes)
attr source packetDropReasonIsRetryLimitReached(packetDropped)
attr title "packet drop: retry limit reached, packetBytes"
vector 328 WsnNetwork.node[10].wlan.mac packetDropBackoffLimitReached:vector(packetBytes) ETV
attr interpolationmode none
attr recordingmode vector(packetBytes)
attr source packetDropReasonIsCongestion(packetDropped)
attr title "packet drop: backoff limit reached, packetBytes"
vector 329 WsnNetwork.node[10].wlan.radio.energyConsumer powerConsumption:vector ETV
attr interpolationmode sample-hold
attr recordingmode vector
attr source powerConsumptionChanged
attr title "Power consumption"
attr unit W
vector 330 WsnNetwork.node[10].wlan.radio radioMode:vector ETV
attr interpolationmode sample-hold
attr recordingmode vector
attr source radioModeChanged
attr title "Radio mode"
vector 331 WsnNetwork.node[10].wlan.radio receptionState:vector ETV
attr interpolationmode sample-hold
attr recordingmode vector
attr source receptionStateChanged
attr title "Radio reception state"
vector 332 WsnNetwork.node[10].wlan.radio transmissionState:vector ETV
attr interpolationmode sample-hold
attr recordingmode vector
attr source transmissionStateChanged
attr title "Radio transmission state"
[...]
190	1049927598 9952 14808498 15024026 316.061933769162 320.649421769162 311 2 3 777 2019
191	1049937550 124219 14808498 15024429 316.061933769162 320.655607324857 3909 0 3 6962 15350
192	1050061769 19904 14808498 15024026 316.061933769162 320.649421769162 622 0 2 621 931
195	1050081673 247012 14808463 15024430 316.059501693592 320.655607332323 6839 0 0.0591 175.69676 10.267679408799
197	1050328685 207496 14808463 15024430 316.059501693592 320.655607332323 4533 1.8441086032955 2.0765705526869 8884.4762779213 17433.451216537
198	1050536181 160 14814171 14983259 316.183157062717 319.783157062717 5 1 1 5 5
201	1050536341 36345 14808634 15024145 316.064813854836 320.65227005188 1077 95 100 107450 10720428
202	1050572686 38684 14808634 15024145 316.064813854836 320.65227005188 1077 48640 51200 55014400 2810295877632
203	1050611370 6660 14810417 15018675 316.101261693592 320.538989693592 148 2.407391641712 3.623871998344 471.62749104984 1518.3809808248
204	1050618030 31498 14808634 15024145 316.064813854836 320.65227005188 929 512 512 475648 243531776
205	1050649528 1167 14810324 15021920 316.1 320.6 46 66560 143360 4741120 501271756800
206	1050650695 5032 14810417 15018675 316.101261693592 320.538989693592 148 512 512 75776 38797312
207	1050655727 1095 14810417 15017523 316.1 320.5 45 0 46080 778240 19346227200
208	1050656822 26449 14808771 15024145 316.068429845038 320.65227005188 780 512 512 399360 204472320
213	1050683271 8457 14809039 15024375 316.074222735747 320.655182700139 257 73 73 18761 1369553
217	1050691728 247012 14808463 15024430 316.059501693592 320.655607332323 6839 0 0.0591 175.69676 10.267679408799
218	1050938740 9504 14808563 15018737 316.062029693592 320.541709693592 297 2 3 742 1928
219	1050948244 126986 14808563 15024430 316.062029693592 320.655607332323 3982 0 3 7318 16650
220	1051075230 19040 14808463 15018737 316.059501693592 320.541709693592 595 0 2 595 893
223	1051094270 241248 14808427 15024540 316.059405813701 320.658135280318 6696 0 0.0591 172.84514 10.093591169199
225	1051335518 202918 14808427 15024540 316.059405813701 320.658135280318 4441 1.8364619892419 2.0689639282294 8673.5953602322 16959.983965633
226	1051538436 192 14809143 15020673 316.075543280318 320.575543280318 6 1 1 6 6
229	1051538628 32558 14808506 15024406 316.061933813701 320.655415280318 968 96 100 96534 9627218
230	1051571186 34697 14808506 15024406 316.061933813701 320.655415280318 968 49152 51200 49425408 2523717435392
231	1051605883 7284 14809251 15024406 316.077399280318 320.655415280318 162 2.256969186031 3.173929538168 425.64541416211 1123.9404192719
232	1051613167 27253 14808506 15024153 316.061933813701 320.652270094287 806 512 512 412672 211288064
233	1051640420 1154 14810320 15021932 316.1 320.6 46 56320 122880 4142080 385377894400
234	1051641574 5508 14809251 15024406 316.077399280318 320.655415280318 162 512 512 82944 42467328
235	1051647082 1136 14810418 15023116 316.1 320.6 46 0 30720 824320 17327718400
236	1051648218 21813 14808506 15024153 316.061933813701 320.652270094287 645 512 512 330240 169082880
241	1051670031 5880 14812333 15024380 316.142349779976 320.65518275166 180 73 73 13140 959220
245	1051675911 241248 14808427 15024540 316.059405813701 320.658135280318 6696 0 0.0591 172.84514 10.093591169199
246	1051917159 10368 14809251 15024540 316.077399280318 320.658135280318 324 2 3 810 2106
247	1051927527 124156 14808427 15024540 316.059405813701 320.658135280318 3906 0 3 6936 15280
248	1052051683 20704 14809251 15024540 316.077399280318 320.658135280318 647 0 2 648 972
251	1052072387 254623 14808431 15024526 316.059405931743 320.657998835246 7069 0 0.0591 172.71918 10.078627172399
253	1052327010 210905 14808431 15024526 316.059405931743 320.657998835246 4613 1.8458852377376 2.0781915505884 9050.106672424 17775.723849673
254	1052537915 160 14837494 15007272 316.686064512795 320.286064512795 5 1 1 5 5
257	1052538075 37496 14808582 15024149 316.062093728961 320.652270087249 1114 97 100 111153 11090949
258	1052575571 39926 14808582 15024149 316.062093728961 320.652270087249 1114 49664 51200 56910336 2907425734656
259	1052615497 7546 14808582 15021148 316.062093728961 320.587053728961 168 2.230686824067 2.691550952214 412.18223027988 1013.6160212315
260	1052623043 31986 14808783 15024149 316.068429931743 320.652270087249 946 512 512 484352 247988224
261	1052655029 1173 14810508 15021833 316.1 320.6 46 76800 128000 4812800 513592524800
262	1052656202 5712 14808582 15021148 316.062093728961 320.587053728961 168 512 512 86016 44040192
263	1052661914 1105 14815230 15017405 316.1 320.5 45 0 40960 875520 21417164800
264	1052663019 26231 14809653 15024149 316.085966649551 320.652270087249 776 512 512 397312 203423744
269	1052689250 13916 14808512 15024527 316.061933931743 320.657998835246 424 73 73 30952 2259496
273	1052703166 254623 14808431 15024526 316.059405931743 320.657998835246 7069 0 0.0591 172.71918 10.078627172399
274	1052957789 10752 14808582 15021245 316.062093728961 320.589773728961 336 2 3 840 2184
275	1052968541 126367 14808431 15024526 316.059405931743 320.657998835246 3970 0 3 7437 17437
276	1053094908 21504 14808582 15021245 316.062093728961 320.589773728961 672 0 2 672 1008
279	1053116412 253887 14808438 15024498 316.059406516794 320.657998272627 7030 0 0.0591 179.39864 10.473711971199
281	1053370299 210355 14808438 15024498 316.059406516794 320.657998272627 4590 1.8388957687791 2.0712417714072 8972.47589372 17559.735109988
282	1053580654 160 14825645 14995607 316.437812568713 320.037812568713 5 1 1 5 5
285	1053580814 35501 14808678 15024501 316.064814318359 320.657998272627 1052 96 100 104913 10463071
286	1053616315 37820 14808678 15024501 316.064814318359 320.657998272627 1052 49152 51200 53715456 2742831284224
287	1053654135 7660 14813584 15024205 316.169454292912 320.652430292912 172 2.245631903721 2.74108809427 437.37131616577 1113.6949211931
288	1053661795 29868 14808678 15024501 316.064814318359 320.657998272627 880 512 512 450560 230686720
289	1053691663 1161 14810363 15021813 316.1 320.6 46 61440 122880 4515840 452408115200
290	1053692824 5848 14813584 15024205 316.169454292912 320.652430292912 172 512 512 88064 45088768
291	1053698672 1138 14813584 15023361 316.1 320.6 46 5120 35840 865280 19634585600
292	1053699810 24098 14808678 15023241 316.064814318359 320.632206292912 710 512 512 363520 186122240
297	1053723908 9654 14808551 15024172 316.061966288026 320.652270518481 294 73 73 21462 1566726
301	1053733562 253887 14808438 15024498 316.059406516794 320.657998272627 7030 0 0.0591 179.39864 10.473711971199
302	1053987449 11008 14813584 15024342 316.169454292912 320.655150292912 344 2 3 860 2236
303	1053998457 127793 14808438 15024498 316.059406516794 320.657998272627 4001 0 3 7295 16565
304	1054126250 22016 14813584 15024342 316.169454292912 320.655150292912 688 0 2 688 1032
307	1054148266 253977 14808435 15024510 316.059406473008 320.657998374128 7029 0 0.0591 174.67096 10.196920680799
309	1054402243 210998 14808435 15024510 316.059406473008 320.657998374128 4603 1.8445395916039 2.0769175965897 9023.9165665303 17711.44693144
310	1054613241 160 14845147 15015168 316.856067314139 320.456067314139 5 1 1 5 5
313	1054613401 37055 14808543 15024513 316.061966241911 320.657998374128 1097 96 100 109428 10916032
314	1054650456 39455 14808543 15024513 316.061966241911 320.657998374128 1097 49152 51200 56027136 2861572292608
315	1054689911 7369 14808922 15023358 316.071502096859 320.635182096859 164 2.454399865368 2.898143853177 440.50965361302 1184.7988956191
316	1054697280 31685 14808543 15024513 316.061966241911 320.657998374128 933 512 512 477696 244580352
317	1054728965 1169 14810524 15021809 316.1 320.6 46 71680 133120 4782080 505623347200
318	1054730134 5576 14808922 15023358 316.071502096859 320.635182096859 164 512 512 83968 42991616
319	1054735710 1136 14811562 15022198 316.1 320.6 46 5120 46080 844800 18953011200
320	1054736846 26080 14808666 15024513 316.064814281653 320.657998374128 768 512 512 393216 201326592
325	1054762926 12343 14809165 15024318 316.077070474994 320.655086231491 375 73 73 27375 1998375
329	1054775269 253977 14808435 15024510 316.059406473008 320.657998374128 7029 0 0.0591 174.67096 10.196920680799
330	1055029246 10496 14808922 15023444 316.071502096859 320.637902096859 328 2 3 820 2132
331	1055039742 127423 14808435 15024510 316.059406473008 320.657998374128 3988 0 3 7419 17215
332	1055167165 20992 14808922 15023444 316.071502096859 320.637902096859 656 0 2 656 984
335	1055188157 254611 14808437 15024494 316.059406494947 320.657998270132 7058 0 0.0591 175.71226 10.256731218799
337	1055442768 210793 14808437 15024494 316.059406494947 320.657998270132 4604 1.8409910824863 2.0732987550523 9009.4274023459 17650.795654557
338	1055653561 160 14823294 14993144 316.387158595584 319.987158595584 5 1 1 5 5
341	1055653721 37337 14808674 15024497 316.064814294351 320.657998270132 1108 96 100 110526 11025636
342	1055691058 39762 14808674 15024497 316.064814294351 320.657998270132 1108 49152 51200 56589312 2890304323584
343	1055730820 7502 14809073 15023360 316.074350339504 320.635278339504 168 2.357088102991 3.341503831501 469.71418990537 1325.2381145635
344	1055738322 31834 14808674 15024497 316.064814294351 320.657998270132 940 512 512 481280 246415360
345	1055770156 1170 14810359 15021821 316.1 320.6 46 71680 133120 4817920 514667315200
346	1055771326 5712 14809073 15023360 316.074350339504 320.635278339504 168 512 512 86016 44040192
347	1055777038 1134 14811112 15021983 316.1 320.6 46 5120 46080 849920 21023948800
348	1055778172 26144 14808674 15024497 316.064814294351 320.657998270132 772 512 512 395264 202375168
353	1055804316 10820 14808549 15024322 316.061966268255 320.655086339504 329 73 73 24017 1753241
357	1055815136 254611 14808437 15024494 316.059406494947 320.657998270132 7058 0 0.0591 175.71226 10.256731218799
358	1056069747 10752 14809073 15023486 316.074350339504 320.637998339504 336 2 3 840 2184
359	1056080499 127286 14808437 15024494 316.059406494947 320.657998270132 3991 0 3 7378 17016
360	1056207785 21504 14809073 15023486 316.074350339504 320.637998339504 672 0 2 672 1008
363	1056229289 251249 14808441 15024514 316.059406555104 320.657998396199 6950 0 0.0591 175.29332 10.235300197599
365	1056480538 208881 14808441 15024514 316.059406555104 320.657998396199 4556 1.8474565229658 2.0797438522018 8944.4020724863 17580.158849488
366	1056689419 160 14829949 15000002 316.530159300053 320.130159300053 5 1 1 5 5
369	1056689579 36347 14808694 15024517 316.064814366653 320.657998396199 1075 96 100 107240 10698396
370	1056725926 38700 14808694 15024517 316.064814366653 320.657998396199 1075 49152 51200 54906880 2804520321024
371	1056764626 7369 14810819 15022508 316.110318170558 320.614158170558 164 2.656479892607 3.131455999781 465.25261505352 1321.4540251563
372	1056771995 30974 14808694 15024517 316.064814366653 320.657998396199 911 512 512 466432 238813184
373	1056802969 1166 14810668 15021797 316.1 320.6 46 76800 133120 4679680 484022681600
374	1056804135 5576 14810819 15022508 316.110318170558 320.614158170558 164 512 512 83968 42991616
375	1056809711 1134 14810819 15022404 316.1 320.6 46 5120 35840 834560 18323865600
376	1056810845 25398 14808694 15024517 316.064814366653 320.657998396199 747 512 512 382464 195821568
381	1056836243 8943 14808557 15024176 316.061966323822 320.652270528846 271 73 73 19783 1444159
385	1056845186 251249 14808441 15024514 316.059406555104 320.657998396199 6950 0 0.0591 175.29332 10.235300197599
386	1057096435 10496 14810819 15022567 316.110318170558 320.616878170558 328 2 3 820 2132
387	1057106931 127291 14808441 15024514 316.059406555104 320.657998396199 3983 0 3 7283 16565
388	1057234222 20992 14810819 15022567 316.110318170558 320.616878170558 656 0 2 656 984
391	1057255214 249622 14808436 15024522 316.059406473427 320.657998413087 6903 0 0.0591 175.08038 10.231925412399
393	1057504836 210853 14808436 15024522 316.059406473427 320.657998413087 4602 1.8462830922525 2.078923621772 9031.4226828632 17744.830532345
394	1057715689 160 14839945 15009666 316.737041343795 320.337041343795 5 1 1 5 5
397	1057715849 36946 14808547 15024525 316.061966242158 320.657998413087 1094 93 100 109128 10886182
398	1057752795 39322 14808547 15024525 316.061966242158 320.657998413087 1094 47616 51200 55873536 2853747294208
399	1057792117 6750 14812735 15024207 316.149134088534 320.652526088534 150 2.520543949981 3.369407897253 436.0875484821 1275.1368905413
400	1057798867 32034 14808547 15024525 316.061966242158 320.657998413087 944 512 512 483328 247463936
401	1057830901 1171 14810520 15021805 316.1 320.6 46 81920 133120 4843520 517052825600
402	1057832072 5100 14812735 15024207 316.149134088534 320.652526088534 150 512 512 76800 39321600
403	1057837172 1148 14812735 15024207 316 320.6 47 0 51200 798720 19765657600
404	1057838320 26945 14808547 15023924 316.061966242158 320.646478242173 794 512 512 406528 208142336
409	1057865265 12454 14809171 15024163 316.07707051665 320.652270446822 378 73 73 27594 2014362
413	1057877719 249622 14808436 15024522 316.059406473427 320.657998413087 6903 0 0.0591 175.08038 10.231925412399
414	1058127341 9600 14812735 15024384 316.149134088534 320.655246088534 300 2 3 750 1950
415	1058136941 127721 14808436 15024522 316.059406473427 320.657998413087 3998 0 3 7481 17381
416	1058264662 19200 14812735 15024384 316.149134088534 320.655246088534 600 0 2 600 900
419	1058283862 253638 14808434 15024502 316.05940643769 320.657998329812 7047 0 0.0591 173.40316 10.118988336799
421	1058537500 210311 14808434 15024502 316.05940643769 320.657998329812 4603 1.8398935878388 2.0721188212125 9001.3788676212 17623.165652172
422	1058747811 160 14835034 15004829 316.633324181987 320.233324181987 5 1 1 5 5
425	1058747971 37275 14808662 15024505 316.06481423814 320.657998329812 1109 96 100 110631 11036605
426	1058785246 39704 14808662 15024505 316.06481423814 320.657998329812 1109 49152 51200 56643072 2893179781120
427	1058824950 7633 14809077 15024206 316.074510089127 320.652462089127 170 2.050006146276 2.832575767233 425.76468420796 1073.7542827441
428	1058832583 31706 14808662 15024505 316.06481423814 320.657998329812 939 512 512 480768 246153216
429	1058864289 1172 14810516 15021817 316.1 320.6 46 76800 128000 4817920 510997299200
430	1058865461 5780 14809077 15024206 316.074510089127 320.652462089127 170 512 512 87040 44564480
431	1058871241 1132 14810966 15022901 316.1 320.6 46 0 35840 865280 19424870400
432	1058872373 26030 14808662 15023340 316.06481423814 320.635022403863 771 512 512 394752 202113024
437	1058898403 14080 14808518 15023783 316.06193443769 320.643662209999 429 73 73 31317 2286141
441	1058912483 253638 14808434 15024502 316.05940643769 320.657998329812 7047 0 0.0591 173.40316 10.118988336799
442	1059166121 10880 14809077 15024361 316.074510089127 320.655182089127 340 2 3 850 2210
443	1059177001 126241 14808434 15024502 316.05940643769 320.657998329812 3970 0 3 7431 17419
444	1059303242 21760 14809077 15024361 316.074510089127 320.655182089127 680 0 2 680 1020
447	1059325002 256773 14808439 15024518 316.059406539439 320.657998400977 7105 0 0.0591 178.42198 10.409106832399
449	1059581775 210644 14808439 15024518 316.059406539439 320.657998400977 4590 1.8487955454822 2.0808177866231 9015.5430226227 17728.494138967
450	1059792419 160 14816971 14986199 316.245487325452 319.845487325452 5 1 1 5 5
453	1059792579 36769 14808682 15024521 316.064814351639 320.657998400977 1088 97 100 108509 10822251
454	1059829348 39168 14808682 15024521 316.064814351639 320.657998400977 1088 49664 51200 55556608 2836988166144
455	1059868516 8026 14811250 15024203 316.119630154069 320.652366154069 179 2.241919896745 3.14950362913 480.65215841507 1303.9716964265
456	1059876542 30906 14808682 15024521 316.064814351639 320.657998400977 909 512 512 465408 238288896
457	1059907448 1168 14810656 15021964 316.1 320.6 46 66560 138240 4679680 485910118400
458	1059908616 6086 14811250 15024203 316.119630154069 320.652366154069 179 512 512 91648 46923776
459	1059914702 1138 14811250 15021982 316.1 320.6 46 5120 56320 911360 22596812800
460	1059915840 24820 14808682 15023928 316.064814351639 320.646478271966 730 512 512 373760 191365120
465	1059940660 10362 14808553 15024170 316.061966308161 320.652270512357 314 73 73 22922 1673306
469	1059951022 256773 14808439 15024518 316.059406539439 320.657998400977 7105 0 0.0591 178.42198 10.409106832399
470	1060207795 11456 14811250 15024306 316.119630154069 320.655086154069 358 2 3 895 2327
471	1060219251 127744 14808439 15024518 316.059406539439 320.657998400977 3992 0 3 7312 16746
472	1060346995 22912 14811250 15024306 316.119630154069 320.655086154069 716 0 2 716 1074
475	1060369907 254645 14808440 15024506 316.059406546184 320.657998351209 7043 0 0.0591 176.97154 10.326719721199
477	1060624552 209174 14808440 15024506 316.059406546184 320.657998351209 4559 1.84806242247 2.0801276056582 8952.5660141625 17600.584721957
478	1060833726 160 14843141 15013018 316.808953859005 320.408953859005 5 1 1 5 5
481	1060833886 36293 14808686 15024509 316.064814353843 320.657998351209 1074 95 100 107087 10677965
482	1060870179 38664 14808686 15024509 316.064814353843 320.657998351209 1074 48640 51200 54828544 2799164456960
483	1060908843 7936 14809248 15019913 316.077262170085 320.562574170085 177 2.186271954176 3.113215783959 486.54077885905 1345.2215298122
484	1060916779 30498 14808686 15024509 316.064814353843 320.657998351209 897 512 512 459264 235143168
485	1060947277 1162 14810374 15021801 316.1 320.6 46 66560 128000 4592640 465541529600
486	1060948439 6018 14809248 15019913 316.077262170085 320.562574170085 177 512 512 90624 46399488
487	1060954457 1112 14816395 15018054 316.1 320.5 45 0 51200 890880 21862809600
488	1060955569 24446 14808910 15024509 316.071342315175 320.657998351209 719 512 512 368128 188481536
493	1060980015 8976 14808555 15024174 316.061966315175 320.652270528373 272 73 73 19856 1449488
497	1060988991 254645 14808440 15024506 316.059406546184 320.657998351209 7043 0 0.0591 176.97154 10.326719721199
498	1061243636 11328 14809248 15020023 316.077262170085 320.565294170085 354 2 3 885 2301
499	1061254964 127424 14808440 15024506 316.059406546184 320.657998351209 3982 0 3 7242 16444
500	1061382388 22656 14809248 15020023 316.077262170085 320.565294170085 708 0 2 708 1062
503	1061405044 252757 14808442 15024493 316.059406555578 320.657998209405 6988 0 0.0591 176.64978 10.312618364399
505	1061657801 209193 14808442 15024493 316.059406555578 320.657998209405 4559 1.8436158407586 2.0758325465402 8933.1412808569 17524.529438786
506	1061866994 160 14834352 15004079 316.620473282738 320.220473282738 5 1 1 5 5
509	1061867154 35899 14808561 15024403 316.061966328982 320.655278209405 1062 97 100 105940 10568372
510	1061903053 38232 14808561 15024403 316.061966328982 320.655278209405 1062 49664 51200 54241280 2770435309568
511	1061941285 7560 14809459 15024403 316.080142209405 320.655278209405 168 2.400607852053 3.124383852053 471.07416464937 1328.9218358481
512	1061948845 30396 14808561 15023916 316.061966328982 320.646478209534 894 512 512 457728 234356736
513	1061979241 1164 14810672 15021825 316.1 320.6 46 71680 133120 4567040 463313305600
514	1061980405 5712 14809459 15024403 316.080142209405 320.655278209405 168 512 512 86016 44040192
515	1061986117 1128 14811561 15021984 316.1 320.6 46 0 40960 870400 20761804800
516	1061987245 24718 14808561 15023916 316.061966328982 320.646478209534 727 512 512 372224 190578688
521	1062011963 9372 14809645 15024324 316.085966261582 320.655086345641 284 73 73 20732 1513436
525	1062021335 252757 14808442 15024493 316.059406555578 320.657998209405 6988 0 0.0591 176.64978 10.312618364399
526	1062274092 10752 14809459 15024493 316.080142209405 320.657998209405 336 2 3 840 2184
527	1062284844 127424 14808442 15024493 316.059406555578 320.657998209405 3982 0 3 7269 16525
528	1062412268 21504 14809459 15024493 316.080142209405 320.657998209405 672 0 2 672 1008
